# generated using pymatgen
data_Li2FeC2(O2F)2
_symmetry_space_group_name_H-M   'P 1'
_cell_length_a   5.64049329
_cell_length_b   8.09393100
_cell_length_c   5.66715035
_cell_angle_alpha   90.00000000
_cell_angle_beta   119.84304569
_cell_angle_gamma   90.00000000
_symmetry_Int_Tables_number   1
_chemical_formula_structural   Li2FeC2(O2F)2
_chemical_formula_sum   'Li4 Fe2 C4 O8 F4'
_cell_volume   224.41746401
_cell_formula_units_Z   2
loop_
 _symmetry_equiv_pos_site_id
 _symmetry_equiv_pos_as_xyz
  1  'x, y, z'
loop_
 _atom_site_type_symbol
 _atom_site_label
 _atom_site_symmetry_multiplicity
 _atom_site_fract_x
 _atom_site_fract_y
 _atom_site_fract_z
 _atom_site_occupancy
  Li  Li0  1  0.51577800  0.74988800  0.03282500  1.0
  Li  Li1  1  0.98422200  0.24988800  0.96717500  1.0
  Li  Li2  1  0.48422200  0.25011200  0.96717500  1.0
  Li  Li3  1  0.01577800  0.75011200  0.03282500  1.0
  Fe  Fe4  1  0.50000000  0.00000000  0.50000000  1.0
  Fe  Fe5  1  0.00000000  0.50000000  0.50000000  1.0
  C  C6  1  0.93276600  0.04799500  0.36542000  1.0
  C  C7  1  0.56723400  0.54799500  0.63458000  1.0
  C  C8  1  0.06723400  0.95200500  0.63458000  1.0
  C  C9  1  0.43276600  0.45200500  0.36542000  1.0
  O  O10  1  0.68175400  0.08302400  0.26283900  1.0
  O  O11  1  0.08128700  0.08310000  0.26300100  1.0
  O  O12  1  0.81824600  0.58302400  0.73716100  1.0
  O  O13  1  0.41871300  0.58310000  0.73699900  1.0
  O  O14  1  0.31824600  0.91697600  0.73716100  1.0
  O  O15  1  0.91871300  0.91690000  0.73699900  1.0
  O  O16  1  0.18175400  0.41697600  0.26283900  1.0
  O  O17  1  0.58128700  0.41690000  0.26300100  1.0
  F  F18  1  0.11939200  0.29372600  0.73765800  1.0
  F  F19  1  0.38060800  0.79372600  0.26234200  1.0
  F  F20  1  0.88060800  0.70627400  0.26234200  1.0
  F  F21  1  0.61939200  0.20627400  0.73765800  1.0
