# generated using pymatgen
data_Li2FeC2(O2F)2
_symmetry_space_group_name_H-M   'P 1'
_cell_length_a   5.78650173
_cell_length_b   6.38819000
_cell_length_c   8.44719730
_cell_angle_alpha   90.00000000
_cell_angle_beta   127.82607401
_cell_angle_gamma   90.00000000
_symmetry_Int_Tables_number   1
_chemical_formula_structural   Li2FeC2(O2F)2
_chemical_formula_sum   'Li4 Fe2 C4 O8 F4'
_cell_volume   246.64111443
_cell_formula_units_Z   2
loop_
 _symmetry_equiv_pos_site_id
 _symmetry_equiv_pos_as_xyz
  1  'x, y, z'
loop_
 _atom_site_type_symbol
 _atom_site_label
 _atom_site_symmetry_multiplicity
 _atom_site_fract_x
 _atom_site_fract_y
 _atom_site_fract_z
 _atom_site_occupancy
  Li  Li0  1  0.76934500  0.24675600  0.48793300  1
  Li  Li1  1  0.26934500  0.75324400  0.98793300  1
  Li  Li2  1  0.16154300  0.24676100  0.46264300  1
  Li  Li3  1  0.66154300  0.75323900  0.96264300  1
  Fe  Fe4  1  0.46527800  0.25245700  0.97527100  1
  Fe  Fe5  1  0.96527800  0.74754300  0.47527100  1
  C  C6  1  0.46515600  0.86760800  0.47507900  1
  C  C7  1  0.46513700  0.62646500  0.47506700  1
  C  C8  1  0.96515600  0.13239200  0.97507900  1
  C  C9  1  0.96513700  0.37353500  0.97506700  1
  O  O10  1  0.67589800  0.95762900  0.49488700  1
  O  O11  1  0.25443100  0.95762900  0.45529600  1
  O  O12  1  0.67544100  0.53660800  0.49424000  1
  O  O13  1  0.25484200  0.53662800  0.45594900  1
  O  O14  1  0.17589800  0.04237100  0.99488700  1
  O  O15  1  0.75443100  0.04237100  0.95529600  1
  O  O16  1  0.17544100  0.46339200  0.99424000  1
  O  O17  1  0.75484200  0.46337200  0.95594900  1
  F  F18  1  0.76202200  0.24837200  0.26777000  1
  F  F19  1  0.26202200  0.75162800  0.76777000  1
  F  F20  1  0.16879300  0.24840000  0.68275900  1
  F  F21  1  0.66879300  0.75160000  0.18275900  1
