# generated using pymatgen
data_Li2FeC2(O2F)2
_symmetry_space_group_name_H-M   'P 1'
_cell_length_a   5.77085316
_cell_length_b   6.39052000
_cell_length_c   6.69826169
_cell_angle_alpha   90.00000000
_cell_angle_beta   96.11872553
_cell_angle_gamma   90.00000000
_symmetry_Int_Tables_number   1
_chemical_formula_structural   Li2FeC2(O2F)2
_chemical_formula_sum   'Li4 Fe2 C4 O8 F4'
_cell_volume   245.61628202
_cell_formula_units_Z   2
loop_
 _symmetry_equiv_pos_site_id
 _symmetry_equiv_pos_as_xyz
  1  'x, y, z'
loop_
 _atom_site_type_symbol
 _atom_site_label
 _atom_site_symmetry_multiplicity
 _atom_site_fract_x
 _atom_site_fract_y
 _atom_site_fract_z
 _atom_site_occupancy
  Li  Li0  1  0.24943700  0.25361200  0.11924600  1
  Li  Li1  1  0.24943700  0.74638800  0.61924600  1
  Li  Li2  1  0.83071100  0.25364000  0.09257400  1
  Li  Li3  1  0.83071100  0.74636000  0.59257400  1
  Fe  Fe4  1  0.03978400  0.24682000  0.60560900  1
  Fe  Fe5  1  0.03978400  0.75318000  0.10560900  1
  C  C6  1  0.54003500  0.87410500  0.10524000  1
  C  C7  1  0.54007600  0.63301800  0.10525900  1
  C  C8  1  0.54003500  0.12589500  0.60524000  1
  C  C9  1  0.54007600  0.36698200  0.60525900  1
  O  O10  1  0.73045700  0.96404200  0.08295700  1
  O  O11  1  0.34963600  0.96402000  0.12755000  1
  O  O12  1  0.73039400  0.54312700  0.08212300  1
  O  O13  1  0.34984800  0.54305000  0.12844300  1
  O  O14  1  0.73045700  0.03595800  0.58295700  1
  O  O15  1  0.34963600  0.03598000  0.62755000  1
  O  O16  1  0.73039400  0.45687300  0.58212300  1
  O  O17  1  0.34984800  0.45695000  0.62844300  1
  F  F18  1  0.04656000  0.74947200  0.81344600  1
  F  F19  1  0.04656000  0.25052800  0.31344600  1
  F  F20  1  0.03336500  0.74933300  0.39777300  1
  F  F21  1  0.03336500  0.25066700  0.89777300  1
