# generated using pymatgen
data_Li2FeC2(O2F)2
_symmetry_space_group_name_H-M   'P 1'
_cell_length_a   7.73609213
_cell_length_b   6.64239866
_cell_length_c   8.06342127
_cell_angle_alpha   53.41418773
_cell_angle_beta   74.57649511
_cell_angle_gamma   46.95548126
_symmetry_Int_Tables_number   1
_chemical_formula_structural   Li2FeC2(O2F)2
_chemical_formula_sum   'Li4 Fe2 C4 O8 F4'
_cell_volume   236.04004330
_cell_formula_units_Z   2
loop_
 _symmetry_equiv_pos_site_id
 _symmetry_equiv_pos_as_xyz
  1  'x, y, z'
loop_
 _atom_site_type_symbol
 _atom_site_label
 _atom_site_symmetry_multiplicity
 _atom_site_fract_x
 _atom_site_fract_y
 _atom_site_fract_z
 _atom_site_occupancy
  Li  Li0  1  0.31345900  0.80813100  0.42796200  1
  Li  Li1  1  0.68654100  0.19186900  0.57203800  1
  Li  Li2  1  0.35098700  0.45281000  0.84378900  1
  Li  Li3  1  0.64901300  0.54719000  0.15621100  1
  Fe  Fe4  1  0.71175900  0.87390000  0.32746800  1
  Fe  Fe5  1  0.28824100  0.12610000  0.67253200  1
  C  C6  1  0.13998500  0.51575900  0.17561600  1
  C  C7  1  0.92244900  0.81355100  0.98060200  1
  C  C8  1  0.86001500  0.48424100  0.82438400  1
  C  C9  1  0.07755100  0.18644900  0.01939800  1
  O  O10  1  0.09693400  0.50849700  0.34148400  1
  O  O11  1  0.33984800  0.30379700  0.15414300  1
  O  O12  1  0.71810000  0.01770500  0.00661500  1
  O  O13  1  0.96418100  0.82747800  0.81422800  1
  O  O14  1  0.90306600  0.49150300  0.65851600  1
  O  O15  1  0.66015200  0.69620300  0.84585700  1
  O  O16  1  0.28190000  0.98229500  0.99338500  1
  O  O17  1  0.03581900  0.17252200  0.18577200  1
  F  F18  1  0.63637400  0.59722000  0.37344900  1
  F  F19  1  0.36362700  0.40278000  0.62655100  1
  F  F20  1  0.32653100  0.82580700  0.64370600  1
  F  F21  1  0.67346900  0.17419300  0.35629400  1
