# generated using pymatgen
data_Li2FeC2(O2F)2
_symmetry_space_group_name_H-M   'P 1'
_cell_length_a   5.90226900
_cell_length_b   5.68395131
_cell_length_c   9.22712709
_cell_angle_alpha   98.49286376
_cell_angle_beta   90.00000000
_cell_angle_gamma   121.27890492
_symmetry_Int_Tables_number   1
_chemical_formula_structural   Li2FeC2(O2F)2
_chemical_formula_sum   'Li4 Fe2 C4 O8 F4'
_cell_volume   260.58005341
_cell_formula_units_Z   2
loop_
 _symmetry_equiv_pos_site_id
 _symmetry_equiv_pos_as_xyz
  1  'x, y, z'
loop_
 _atom_site_type_symbol
 _atom_site_label
 _atom_site_symmetry_multiplicity
 _atom_site_fract_x
 _atom_site_fract_y
 _atom_site_fract_z
 _atom_site_occupancy
  Li  Li0  1  0.57974900  0.70258100  0.44898500  1
  Li  Li1  1  0.12283200  0.70258100  0.94898500  1
  Li  Li2  1  0.54779300  0.19400000  0.00733800  1
  Li  Li3  1  0.64620700  0.19400000  0.50733800  1
  Fe  Fe4  1  0.09820900  0.64263300  0.25836500  1
  Fe  Fe5  1  0.54442500  0.64263300  0.75836500  1
  C  C6  1  0.97965900  0.09135200  0.30654200  1
  C  C7  1  0.21188800  0.19571500  0.20824900  1
  C  C8  1  0.11169400  0.09135200  0.80654200  1
  C  C9  1  0.98382700  0.19571500  0.70824900  1
  O  O10  1  0.89010900  0.85177200  0.33995200  1
  O  O11  1  0.89812600  0.25464900  0.34891500  1
  O  O12  1  0.27574900  0.02126100  0.15264700  1
  O  O13  1  0.32637100  0.44627200  0.19114300  1
  O  O14  1  0.96166300  0.85177200  0.83995200  1
  O  O15  1  0.35652300  0.25464900  0.84891500  1
  O  O16  1  0.74551200  0.02126100  0.65264700  1
  O  O17  1  0.11990100  0.44627200  0.69114300  1
  F  F18  1  0.36664700  0.84350800  0.42681100  1
  F  F19  1  0.47686100  0.84350800  0.92681100  1
  F  F20  1  0.56264900  0.45649800  0.56079100  1
  F  F21  1  0.89384900  0.45649800  0.06079100  1
