# generated using pymatgen
data_Li2FeC2(O2F)2
_symmetry_space_group_name_H-M   'P 1'
_cell_length_a   5.46373811
_cell_length_b   4.95686000
_cell_length_c   8.02964725
_cell_angle_alpha   90.00000000
_cell_angle_beta   101.69733046
_cell_angle_gamma   90.00000000
_symmetry_Int_Tables_number   1
_chemical_formula_structural   Li2FeC2(O2F)2
_chemical_formula_sum   'Li4 Fe2 C4 O8 F4'
_cell_volume   212.95052046
_cell_formula_units_Z   2
loop_
 _symmetry_equiv_pos_site_id
 _symmetry_equiv_pos_as_xyz
  1  'x, y, z'
loop_
 _atom_site_type_symbol
 _atom_site_label
 _atom_site_symmetry_multiplicity
 _atom_site_fract_x
 _atom_site_fract_y
 _atom_site_fract_z
 _atom_site_occupancy
  Li  Li0  1  0.25296000  0.75747700  0.04655800  1.0
  Li  Li1  1  0.74704000  0.25747700  0.95344200  1.0
  Li  Li2  1  0.22716300  0.25617000  0.95117800  1.0
  Li  Li3  1  0.77283700  0.75617000  0.04882200  1.0
  Fe  Fe4  1  0.40915700  0.75576500  0.66507300  1.0
  Fe  Fe5  1  0.59084300  0.25576500  0.33492700  1.0
  C  C6  1  0.10191600  0.12722600  0.38778600  1.0
  C  C7  1  0.07542200  0.38554400  0.27979200  1.0
  C  C8  1  0.89808400  0.62722600  0.61221400  1.0
  C  C9  1  0.92457800  0.88554400  0.72020800  1.0
  O  O10  1  0.32308400  0.03921400  0.44555400  1.0
  O  O11  1  0.90386400  0.01992500  0.41258300  1.0
  O  O12  1  0.27241700  0.48847100  0.24536100  1.0
  O  O13  1  0.85689400  0.47939000  0.23187900  1.0
  O  O14  1  0.67691600  0.53921400  0.55444600  1.0
  O  O15  1  0.09613600  0.51992500  0.58741700  1.0
  O  O16  1  0.72758300  0.98847100  0.75463900  1.0
  O  O17  1  0.14310600  0.97939000  0.76812100  1.0
  F  F18  1  0.47767700  0.54761100  0.90705000  1.0
  F  F19  1  0.52232300  0.04761100  0.09295000  1.0
  F  F20  1  0.01982600  0.02317400  0.07258500  1.0
  F  F21  1  0.98017400  0.52317400  0.92741500  1.0
