# generated using pymatgen
data_Li2FeC2(O2F)2
_symmetry_space_group_name_H-M   'P 1'
_cell_length_a   4.95686000
_cell_length_b   5.46373811
_cell_length_c   10.58853104
_cell_angle_alpha   132.04787133
_cell_angle_beta   90.00000000
_cell_angle_gamma   90.00000000
_symmetry_Int_Tables_number   1
_chemical_formula_structural   Li2FeC2(O2F)2
_chemical_formula_sum   'Li4 Fe2 C4 O8 F4'
_cell_volume   212.95052020
_cell_formula_units_Z   2
loop_
 _symmetry_equiv_pos_site_id
 _symmetry_equiv_pos_as_xyz
  1  'x, y, z'
loop_
 _atom_site_type_symbol
 _atom_site_label
 _atom_site_symmetry_multiplicity
 _atom_site_fract_x
 _atom_site_fract_y
 _atom_site_fract_z
 _atom_site_occupancy
  Li  Li0  1  0.75747700  0.70048200  0.95344200  1
  Li  Li1  1  0.25747700  0.29951800  0.04655800  1
  Li  Li2  1  0.25617000  0.82165900  0.04882200  1
  Li  Li3  1  0.75617000  0.17834100  0.95117800  1
  Fe  Fe4  1  0.75576500  0.92577000  0.33492700  1
  Fe  Fe5  1  0.25576500  0.07423000  0.66507300  1
  C  C6  1  0.12722600  0.51029800  0.61221400  1
  C  C7  1  0.38554400  0.64478600  0.72020800  1
  C  C8  1  0.62722600  0.48970200  0.38778600  1
  C  C9  1  0.88554400  0.35521400  0.27979200  1
  O  O10  1  0.03921400  0.23136200  0.55444600  1
  O  O11  1  0.01992500  0.68355300  0.58741700  1
  O  O12  1  0.48847100  0.48222200  0.75463900  1
  O  O13  1  0.47939000  0.91122700  0.76812100  1
  O  O14  1  0.53921400  0.76863800  0.44555400  1
  O  O15  1  0.51992500  0.31644700  0.41258300  1
  O  O16  1  0.98847100  0.51777800  0.24536100  1
  O  O17  1  0.97939000  0.08877300  0.23187900  1
  F  F18  1  0.54761100  0.61527300  0.09295000  1
  F  F19  1  0.04761100  0.38472700  0.90705000  1
  F  F20  1  0.02317400  0.90758900  0.92741500  1
  F  F21  1  0.52317400  0.09241100  0.07258500  1
