# generated using pymatgen
data_Li2FeC2(O2F)2
_symmetry_space_group_name_H-M   'P 1'
_cell_length_a   5.11122300
_cell_length_b   6.34758422
_cell_length_c   7.34347086
_cell_angle_alpha   106.31674150
_cell_angle_beta   90.00000000
_cell_angle_gamma   90.00000000
_symmetry_Int_Tables_number   1
_chemical_formula_structural   Li2FeC2(O2F)2
_chemical_formula_sum   'Li4 Fe2 C4 O8 F4'
_cell_volume   228.65499308
_cell_formula_units_Z   2
loop_
 _symmetry_equiv_pos_site_id
 _symmetry_equiv_pos_as_xyz
  1  'x, y, z'
loop_
 _atom_site_type_symbol
 _atom_site_label
 _atom_site_symmetry_multiplicity
 _atom_site_fract_x
 _atom_site_fract_y
 _atom_site_fract_z
 _atom_site_occupancy
  Li  Li0  1  0.47819100  0.78494000  0.22214100  1
  Li  Li1  1  0.97819100  0.21506000  0.77785900  1
  Li  Li2  1  0.52319000  0.13652800  0.03573200  1
  Li  Li3  1  0.02319000  0.86347200  0.96426800  1
  Fe  Fe4  1  0.49044000  0.55838100  0.81638100  1
  Fe  Fe5  1  0.99044000  0.44161900  0.18361900  1
  C  C6  1  0.14191200  0.69986900  0.54661400  1
  C  C7  1  0.89196500  0.81060100  0.50109600  1
  C  C8  1  0.64191200  0.30013100  0.45338600  1
  C  C9  1  0.39196500  0.18939800  0.49890400  1
  O  O10  1  0.22007100  0.75147300  0.71703200  1
  O  O11  1  0.25264700  0.56356400  0.40834000  1
  O  O12  1  0.79548700  0.96811400  0.62429900  1
  O  O13  1  0.79945200  0.72531700  0.33443000  1
  O  O14  1  0.72007100  0.24852700  0.28296800  1
  O  O15  1  0.75264700  0.43643600  0.59166000  1
  O  O16  1  0.29548700  0.03188600  0.37570100  1
  O  O17  1  0.29945200  0.27468300  0.66557000  1
  F  F18  1  0.71044100  0.36341300  0.95590400  1
  F  F19  1  0.21044100  0.63658700  0.04409600  1
  F  F20  1  0.65468700  0.83952300  0.98522100  1
  F  F21  1  0.15468700  0.16047700  0.01477900  1
