# generated using pymatgen
data_Li2FeC2(O2F)2
_symmetry_space_group_name_H-M   'P 1'
_cell_length_a   3.33885700
_cell_length_b   6.05503949
_cell_length_c   11.69542353
_cell_angle_alpha   98.58670856
_cell_angle_beta   90.00000000
_cell_angle_gamma   106.00428139
_symmetry_Int_Tables_number   1
_chemical_formula_structural   Li2FeC2(O2F)2
_chemical_formula_sum   'Li4 Fe2 C4 O8 F4'
_cell_volume   224.52251703
_cell_formula_units_Z   2
loop_
 _symmetry_equiv_pos_site_id
 _symmetry_equiv_pos_as_xyz
  1  'x, y, z'
loop_
 _atom_site_type_symbol
 _atom_site_label
 _atom_site_symmetry_multiplicity
 _atom_site_fract_x
 _atom_site_fract_y
 _atom_site_fract_z
 _atom_site_occupancy
  Li  Li0  1  0.58135600  0.70826300  0.99497300  1
  Li  Li1  1  0.87309300  0.29173700  0.00502700  1
  Li  Li2  1  0.11313300  0.70968900  0.49529000  1
  Li  Li3  1  0.40344400  0.29031100  0.50471000  1
  Fe  Fe4  1  0.49325800  0.49864400  0.25007400  1
  Fe  Fe5  1  0.99461200  0.50135600  0.74992600  1
  C  C6  1  0.82866400  0.92983700  0.78690900  1
  C  C7  1  0.15932100  0.07355400  0.71314600  1
  C  C8  1  0.89882700  0.07016300  0.21309100  1
  C  C9  1  0.08576800  0.92644600  0.28685400  1
  O  O10  1  0.77096100  0.01399400  0.88690400  1
  O  O11  1  0.62740200  0.72405300  0.73649800  1
  O  O12  1  0.36192700  0.27896600  0.76350100  1
  O  O13  1  0.21579400  0.98921800  0.61304100  1
  O  O14  1  0.75696700  0.98600600  0.11309600  1
  O  O15  1  0.90334900  0.27594700  0.26350200  1
  O  O16  1  0.08296000  0.72103400  0.23649900  1
  O  O17  1  0.22657700  0.01078200  0.38695900  1
  F  F18  1  0.43449300  0.41889900  0.07680100  1
  F  F19  1  0.01559400  0.58110100  0.92319900  1
  F  F20  1  0.97106100  0.42003000  0.57681300  1
  F  F21  1  0.55103200  0.57997100  0.42318700  1
