# generated using pymatgen
data_Li2FeC2(O2F)2
_symmetry_space_group_name_H-M   'P 1'
_cell_length_a   6.23402404
_cell_length_b   7.66069705
_cell_length_c   10.67543700
_cell_angle_alpha   90.00000000
_cell_angle_beta   90.00000000
_cell_angle_gamma   106.33699278
_symmetry_Int_Tables_number   1
_chemical_formula_structural   Li2FeC2(O2F)2
_chemical_formula_sum   'Li8 Fe4 C8 O16 F8'
_cell_volume   489.24170338
_cell_formula_units_Z   4
loop_
 _symmetry_equiv_pos_site_id
 _symmetry_equiv_pos_as_xyz
  1  'x, y, z'
loop_
 _atom_site_type_symbol
 _atom_site_label
 _atom_site_symmetry_multiplicity
 _atom_site_fract_x
 _atom_site_fract_y
 _atom_site_fract_z
 _atom_site_occupancy
  Li  Li0  1  0.65368200  0.61328600  0.05821300  1
  Li  Li1  1  0.34631800  0.38671400  0.55821300  1
  Li  Li2  1  0.99063400  0.93668100  0.95371100  1
  Li  Li3  1  0.00936600  0.06331900  0.45371100  1
  Li  Li4  1  0.39507000  0.26083700  0.01888500  1
  Li  Li5  1  0.60493000  0.73916300  0.51888500  1
  Li  Li6  1  0.06634100  0.61438600  0.51768500  1
  Li  Li7  1  0.93365900  0.38561400  0.01768500  1
  Fe  Fe8  1  0.78086800  0.53374900  0.77151800  1
  Fe  Fe9  1  0.21913200  0.46625100  0.27151800  1
  Fe  Fe10  1  0.52224700  0.09576000  0.57645000  1
  Fe  Fe11  1  0.47775300  0.90424000  0.07645000  1
  C  C12  1  0.29460000  0.07896600  0.26029500  1
  C  C13  1  0.22717000  0.87745900  0.30241200  1
  C  C14  1  0.70540000  0.92103400  0.76029500  1
  C  C15  1  0.77283000  0.12254100  0.80241200  1
  C  C16  1  0.75075900  0.37432800  0.38765700  1
  C  C17  1  0.73390300  0.46889200  0.26285000  1
  C  C18  1  0.24924100  0.62567200  0.88765700  1
  C  C19  1  0.26609700  0.53110800  0.76285000  1
  O  O20  1  0.18555000  0.17798900  0.30743100  1
  O  O21  1  0.45350000  0.12758200  0.18164700  1
  O  O22  1  0.11294000  0.83721000  0.40031400  1
  O  O23  1  0.29506800  0.76878300  0.23186200  1
  O  O24  1  0.81445000  0.82201100  0.80743100  1
  O  O25  1  0.54650000  0.87241700  0.68164700  1
  O  O26  1  0.88706000  0.16279000  0.90031400  1
  O  O27  1  0.70493200  0.23121700  0.73186200  1
  O  O28  1  0.57388800  0.30450800  0.44847600  1
  O  O29  1  0.94559400  0.36956600  0.41716500  1
  O  O30  1  0.56640500  0.52209600  0.23419700  1
  O  O31  1  0.90101700  0.48710000  0.19115800  1
  O  O32  1  0.42611200  0.69549200  0.94847600  1
  O  O33  1  0.05440600  0.63043400  0.91716500  1
  O  O34  1  0.43359500  0.47790400  0.73419700  1
  O  O35  1  0.09898300  0.51290000  0.69115800  1
  F  F36  1  0.70130500  0.98053600  0.46352200  1
  F  F37  1  0.29869500  0.01946400  0.96352200  1
  F  F38  1  0.20950100  0.38199400  0.08468000  1
  F  F39  1  0.79049900  0.61800600  0.58468000  1
  F  F40  1  0.65625000  0.42140700  0.95576100  1
  F  F41  1  0.34375000  0.57859300  0.45576100  1
  F  F42  1  0.22495500  0.13396900  0.58471900  1
  F  F43  1  0.77504500  0.86603100  0.08471900  1
