# generated using pymatgen
data_Li2FeC2(O2F)2
_symmetry_space_group_name_H-M   'P 1'
_cell_length_a   5.96151539
_cell_length_b   9.05187462
_cell_length_c   11.24888582
_cell_angle_alpha   85.35288383
_cell_angle_beta   103.82345775
_cell_angle_gamma   123.26818641
_symmetry_Int_Tables_number   1
_chemical_formula_structural   Li2FeC2(O2F)2
_chemical_formula_sum   'Li8 Fe4 C8 O16 F8'
_cell_volume   491.90136631
_cell_formula_units_Z   4
loop_
 _symmetry_equiv_pos_site_id
 _symmetry_equiv_pos_as_xyz
  1  'x, y, z'
loop_
 _atom_site_type_symbol
 _atom_site_label
 _atom_site_symmetry_multiplicity
 _atom_site_fract_x
 _atom_site_fract_y
 _atom_site_fract_z
 _atom_site_occupancy
  Li  Li0  1  0.53909300  0.97137200  0.37841300  1
  Li  Li1  1  0.46090700  0.02862800  0.62158700  1
  Li  Li2  1  0.10808800  0.27693800  0.52930700  1
  Li  Li3  1  0.89191200  0.72306200  0.47069300  1
  Li  Li4  1  0.30337100  0.53110000  0.30453200  1
  Li  Li5  1  0.69662900  0.46890000  0.69546800  1
  Li  Li6  1  0.72458300  0.11319300  0.10518800  1
  Li  Li7  1  0.27541700  0.88680700  0.89481200  1
  Fe  Fe8  1  0.32921500  0.27418800  0.96950800  1
  Fe  Fe9  1  0.67078500  0.72581200  0.03049200  1
  Fe  Fe10  1  0.32049400  0.65145400  0.57840000  1
  Fe  Fe11  1  0.67950600  0.34854600  0.42160000  1
  C  C12  1  0.89065000  0.28455500  0.80352800  1
  C  C13  1  0.07561600  0.47270400  0.86652400  1
  C  C14  1  0.10935000  0.71544500  0.19647200  1
  C  C15  1  0.92438400  0.52729600  0.13347600  1
  C  C16  1  0.24981200  0.17077300  0.21876600  1
  C  C17  1  0.09874300  0.14014800  0.32103400  1
  C  C18  1  0.75018800  0.82922700  0.78123400  1
  C  C19  1  0.90125700  0.85985200  0.67896600  1
  O  O20  1  0.67409600  0.24838300  0.72562600  1
  O  O21  1  0.97616700  0.18271600  0.83266700  1
  O  O22  1  0.00230900  0.57915900  0.84277800  1
  O  O23  1  0.30001800  0.50224300  0.93829400  1
  O  O24  1  0.32590400  0.75161700  0.27437400  1
  O  O25  1  0.02383300  0.81728400  0.16733300  1
  O  O26  1  0.99769100  0.42084100  0.15722200  1
  O  O27  1  0.69998200  0.49775700  0.06170600  1
  O  O28  1  0.49054600  0.20063600  0.25152200  1
  O  O29  1  0.12386600  0.16942500  0.11069700  1
  O  O30  1  0.25138100  0.19232600  0.43070400  1
  O  O31  1  0.84444700  0.07192400  0.29106400  1
  O  O32  1  0.50945400  0.79936400  0.74847800  1
  O  O33  1  0.87613400  0.83057500  0.88930300  1
  O  O34  1  0.74861900  0.80767400  0.56929600  1
  O  O35  1  0.15555300  0.92807600  0.70893600  1
  F  F36  1  0.27282900  0.84140700  0.49234000  1
  F  F37  1  0.72717100  0.15859300  0.50766000  1
  F  F38  1  0.36802500  0.45583200  0.65019200  1
  F  F39  1  0.63197500  0.54416800  0.34980800  1
  F  F40  1  0.52104700  0.86713700  0.03208800  1
  F  F41  1  0.47895300  0.13286300  0.96791200  1
  F  F42  1  0.10550400  0.46119000  0.42732600  1
  F  F43  1  0.89449600  0.53881000  0.57267400  1
