# generated using pymatgen
data_Li2FeC2(O2F)2
_symmetry_space_group_name_H-M   'P 1'
_cell_length_a   5.69739875
_cell_length_b   5.36762300
_cell_length_c   9.50688666
_cell_angle_alpha   90.00000000
_cell_angle_beta   62.02545159
_cell_angle_gamma   90.00000000
_symmetry_Int_Tables_number   1
_chemical_formula_structural   Li2FeC2(O2F)2
_chemical_formula_sum   'Li4 Fe2 C4 O8 F4'
_cell_volume   256.76414993
_cell_formula_units_Z   2
loop_
 _symmetry_equiv_pos_site_id
 _symmetry_equiv_pos_as_xyz
  1  'x, y, z'
loop_
 _atom_site_type_symbol
 _atom_site_label
 _atom_site_symmetry_multiplicity
 _atom_site_fract_x
 _atom_site_fract_y
 _atom_site_fract_z
 _atom_site_occupancy
  Li  Li0  1  0.60708500  0.66983300  0.49823700  1
  Li  Li1  1  0.39291500  0.16983300  0.50176400  1
  Li  Li2  1  0.04071800  0.61680400  0.73450100  1
  Li  Li3  1  0.95928200  0.11680400  0.26549900  1
  Fe  Fe4  1  0.17783800  0.06834000  0.85212700  1
  Fe  Fe5  1  0.82216200  0.56834000  0.14787300  1
  C  C6  1  0.30857800  0.72093400  0.19886400  1
  C  C7  1  0.37532100  0.91107700  0.29554500  1
  C  C8  1  0.69142200  0.22093400  0.80113600  1
  C  C9  1  0.62467900  0.41107700  0.70445500  1
  O  O10  1  0.08904000  0.76000300  0.19890000  1
  O  O11  1  0.46734300  0.54367000  0.13535100  1
  O  O12  1  0.21651500  0.08605500  0.36443400  1
  O  O13  1  0.58987000  0.86917700  0.30429300  1
  O  O14  1  0.91096000  0.26000300  0.80110000  1
  O  O15  1  0.53265700  0.04367000  0.86464900  1
  O  O16  1  0.78348500  0.58605500  0.63556600  1
  O  O17  1  0.41013000  0.36917700  0.69570700  1
  F  F18  1  0.02098900  0.25207000  0.07033600  1
  F  F19  1  0.97901100  0.75207000  0.92966400  1
  F  F20  1  0.68894600  0.37310100  0.37290500  1
  F  F21  1  0.31105400  0.87310100  0.62709500  1
