# generated using pymatgen
data_Li2FeC2(O2F)2
_symmetry_space_group_name_H-M   'P 1'
_cell_length_a   5.56478616
_cell_length_b   7.94209534
_cell_length_c   8.10546595
_cell_angle_alpha   42.92957237
_cell_angle_beta   73.54309990
_cell_angle_gamma   68.26141733
_symmetry_Int_Tables_number   1
_chemical_formula_structural   Li2FeC2(O2F)2
_chemical_formula_sum   'Li4 Fe2 C4 O8 F4'
_cell_volume   226.59656868
_cell_formula_units_Z   2
loop_
 _symmetry_equiv_pos_site_id
 _symmetry_equiv_pos_as_xyz
  1  'x, y, z'
loop_
 _atom_site_type_symbol
 _atom_site_label
 _atom_site_symmetry_multiplicity
 _atom_site_fract_x
 _atom_site_fract_y
 _atom_site_fract_z
 _atom_site_occupancy
  Li  Li0  1  0.21673000  0.77359300  0.12578000  1
  Li  Li1  1  0.78327000  0.22640700  0.87422000  1
  Li  Li2  1  0.27227200  0.44624300  0.98242600  1
  Li  Li3  1  0.72772800  0.55375700  0.01757400  1
  Fe  Fe4  1  0.17508600  0.02875400  0.60074400  1
  Fe  Fe5  1  0.82491400  0.97124600  0.39925600  1
  C  C6  1  0.57498200  0.18590300  0.62702600  1
  C  C7  1  0.35277000  0.22902700  0.76481500  1
  C  C8  1  0.42501800  0.81409700  0.37297400  1
  C  C9  1  0.64723000  0.77097300  0.23518500  1
  O  O10  1  0.52231600  0.14717000  0.51530100  1
  O  O11  1  0.79248400  0.18687500  0.64293700  1
  O  O12  1  0.14850700  0.17436300  0.79441500  1
  O  O13  1  0.39948100  0.30213300  0.84440300  1
  O  O14  1  0.47768400  0.85283000  0.48469900  1
  O  O15  1  0.20751600  0.81312500  0.35706300  1
  O  O16  1  0.85149300  0.82563700  0.20558500  1
  O  O17  1  0.60051900  0.69786700  0.15559700  1
  F  F18  1  0.95448400  0.74548900  0.73819000  1
  F  F19  1  0.04551600  0.25451100  0.26181000  1
  F  F20  1  0.68197300  0.29538800  0.06403200  1
  F  F21  1  0.31802700  0.70461200  0.93596800  1
