# generated using pymatgen
data_Li2FeC2(O2F)2
_symmetry_space_group_name_H-M   'P 1'
_cell_length_a   6.54924019
_cell_length_b   6.65872041
_cell_length_c   9.21552800
_cell_angle_alpha   90.00000000
_cell_angle_beta   90.00000000
_cell_angle_gamma   132.44562153
_symmetry_Int_Tables_number   1
_chemical_formula_structural   Li2FeC2(O2F)2
_chemical_formula_sum   'Li4 Fe2 C4 O8 F4'
_cell_volume   296.55833926
_cell_formula_units_Z   2
loop_
 _symmetry_equiv_pos_site_id
 _symmetry_equiv_pos_as_xyz
  1  'x, y, z'
loop_
 _atom_site_type_symbol
 _atom_site_label
 _atom_site_symmetry_multiplicity
 _atom_site_fract_x
 _atom_site_fract_y
 _atom_site_fract_z
 _atom_site_occupancy
  Li  Li0  1  0.24550200  0.00489900  0.97097700  1
  Li  Li1  1  0.75449800  0.99510100  0.47097700  1
  Li  Li2  1  0.74451200  0.50427500  0.94480800  1
  Li  Li3  1  0.25548800  0.49572500  0.44480800  1
  Fe  Fe4  1  0.25449200  0.99574400  0.65485900  1
  Fe  Fe5  1  0.74550800  0.00425600  0.15485900  1
  C  C6  1  0.69113600  0.55557900  0.56784000  1
  C  C7  1  0.82181900  0.43248800  0.57266500  1
  C  C8  1  0.30886400  0.44442100  0.06784000  1
  C  C9  1  0.17818100  0.56751200  0.07266500  1
  O  O10  1  0.42958200  0.39051600  0.56091100  1
  O  O11  1  0.85716200  0.81278700  0.56025400  1
  O  O12  1  0.65588700  0.17504900  0.56869700  1
  O  O13  1  0.08356000  0.59731800  0.56900000  1
  O  O14  1  0.57041800  0.60948400  0.06091100  1
  O  O15  1  0.14283800  0.18721300  0.06025400  1
  O  O16  1  0.34411300  0.82495100  0.06869700  1
  O  O17  1  0.91644000  0.40268200  0.06900000  1
  F  F18  1  0.49253700  0.22500500  0.82937700  1
  F  F19  1  0.50746300  0.77499500  0.32937700  1
  F  F20  1  0.00683700  0.77571500  0.82875500  1
  F  F21  1  0.99316300  0.22428500  0.32875500  1
