# generated using pymatgen
data_Li2FeC2(O2F)2
_symmetry_space_group_name_H-M   'P 1'
_cell_length_a   3.42117078
_cell_length_b   6.04517407
_cell_length_c   11.36228700
_cell_angle_alpha   90.00000000
_cell_angle_beta   90.00000000
_cell_angle_gamma   98.40512744
_symmetry_Int_Tables_number   1
_chemical_formula_structural   Li2FeC2(O2F)2
_chemical_formula_sum   'Li4 Fe2 C4 O8 F4'
_cell_volume   232.46599976
_cell_formula_units_Z   2
loop_
 _symmetry_equiv_pos_site_id
 _symmetry_equiv_pos_as_xyz
  1  'x, y, z'
loop_
 _atom_site_type_symbol
 _atom_site_label
 _atom_site_symmetry_multiplicity
 _atom_site_fract_x
 _atom_site_fract_y
 _atom_site_fract_z
 _atom_site_occupancy
  Li  Li0  1  0.56638300  0.50941100  0.67554700  1
  Li  Li1  1  0.43361700  0.49058900  0.17554700  1
  Li  Li2  1  0.99586200  0.04913900  0.72346100  1
  Li  Li3  1  0.00413800  0.95086100  0.22346100  1
  Fe  Fe4  1  0.63056500  0.80940000  0.93862000  1
  Fe  Fe5  1  0.36943500  0.19060000  0.43862000  1
  C  C6  1  0.74877700  0.76981400  0.45498300  1
  C  C7  1  0.94875400  0.59472800  0.38914500  1
  C  C8  1  0.25122300  0.23018600  0.95498300  1
  C  C9  1  0.05124600  0.40527200  0.88914500  1
  O  O10  1  0.54054800  0.71245100  0.54212600  1
  O  O11  1  0.80407500  0.96820200  0.41018300  1
  O  O12  1  0.92753900  0.40470800  0.43902800  1
  O  O13  1  0.11268500  0.64925200  0.29208600  1
  O  O14  1  0.45945200  0.28754900  0.04212600  1
  O  O15  1  0.19592500  0.03179800  0.91018300  1
  O  O16  1  0.07246100  0.59529200  0.93902800  1
  O  O17  1  0.88731500  0.35074800  0.79208600  1
  F  F18  1  0.63221200  0.79367900  0.76451100  1
  F  F19  1  0.36778800  0.20632100  0.26451100  1
  F  F20  1  0.65200000  0.79776300  0.11229900  1
  F  F21  1  0.34800000  0.20223700  0.61229900  1
