# generated using pymatgen
data_Li2FeC2(O2F)2
_symmetry_space_group_name_H-M   'P 1'
_cell_length_a   6.09626708
_cell_length_b   7.72288591
_cell_length_c   11.82354926
_cell_angle_alpha   101.21629877
_cell_angle_beta   91.64732283
_cell_angle_gamma   111.90166691
_symmetry_Int_Tables_number   1
_chemical_formula_structural   Li2FeC2(O2F)2
_chemical_formula_sum   'Li8 Fe4 C8 O16 F8'
_cell_volume   503.47181307
_cell_formula_units_Z   4
loop_
 _symmetry_equiv_pos_site_id
 _symmetry_equiv_pos_as_xyz
  1  'x, y, z'
loop_
 _atom_site_type_symbol
 _atom_site_label
 _atom_site_symmetry_multiplicity
 _atom_site_fract_x
 _atom_site_fract_y
 _atom_site_fract_z
 _atom_site_occupancy
  Li  Li0  1  0.12014300  0.48784400  0.19693300  1
  Li  Li1  1  0.87985700  0.51215600  0.80306700  1
  Li  Li2  1  0.34902100  0.94108900  0.22647400  1
  Li  Li3  1  0.65097900  0.05891100  0.77352600  1
  Li  Li4  1  0.91644700  0.86637200  0.89497900  1
  Li  Li5  1  0.08355300  0.13362800  0.10502100  1
  Li  Li6  1  0.04750900  0.14965100  0.61199000  1
  Li  Li7  1  0.95249100  0.85034900  0.38801000  1
  Fe  Fe8  1  0.51836700  0.61791300  0.64064500  1
  Fe  Fe9  1  0.48163300  0.38208700  0.35935500  1
  Fe  Fe10  1  0.41053800  0.77025200  0.99581100  1
  Fe  Fe11  1  0.58946200  0.22974800  0.00418900  1
  C  C12  1  0.16048700  0.18973000  0.83638200  1
  C  C13  1  0.31325300  0.38212600  0.80856300  1
  C  C14  1  0.83951300  0.81027000  0.16361800  1
  C  C15  1  0.68674700  0.61787400  0.19143700  1
  C  C16  1  0.75616400  0.32955300  0.54463800  1
  C  C17  1  0.71518500  0.15679500  0.44330100  1
  C  C18  1  0.24383600  0.67044700  0.45536200  1
  C  C19  1  0.28481500  0.84320500  0.55669900  1
  O  O20  1  0.98078600  0.08642500  0.76338400  1
  O  O21  1  0.21297300  0.14390300  0.92752000  1
  O  O22  1  0.32583900  0.37788600  0.69942400  1
  O  O23  1  0.39920000  0.52667500  0.88893000  1
  O  O24  1  0.01921400  0.91357500  0.23661600  1
  O  O25  1  0.78702700  0.85609700  0.07248000  1
  O  O26  1  0.67416100  0.62211400  0.30057600  1
  O  O27  1  0.60080000  0.47332500  0.11107000  1
  O  O28  1  0.66723900  0.44766900  0.52242200  1
  O  O29  1  0.86498000  0.33987800  0.63788800  1
  O  O30  1  0.57413400  0.14086900  0.35612100  1
  O  O31  1  0.81687700  0.04743600  0.45716400  1
  O  O32  1  0.33276100  0.55233100  0.47757800  1
  O  O33  1  0.13502000  0.66012200  0.36211200  1
  O  O34  1  0.42586600  0.85913100  0.64387900  1
  O  O35  1  0.18312300  0.95256400  0.54283600  1
  F  F36  1  0.59860700  0.95267600  0.90131500  1
  F  F37  1  0.40139300  0.04732400  0.09868500  1
  F  F38  1  0.91568500  0.28728400  0.08292900  1
  F  F39  1  0.08431500  0.71271600  0.91707100  1
  F  F40  1  0.21415900  0.30816400  0.24799700  1
  F  F41  1  0.78584100  0.69183600  0.75200300  1
  F  F42  1  0.68742300  0.29928700  0.85453300  1
  F  F43  1  0.31257700  0.70071300  0.14546700  1
