# generated using pymatgen
data_Li2FeC2(O2F)2
_symmetry_space_group_name_H-M   'P 1'
_cell_length_a   6.69488407
_cell_length_b   6.08290961
_cell_length_c   7.69737988
_cell_angle_alpha   123.84301691
_cell_angle_beta   93.84321363
_cell_angle_gamma   110.20674085
_symmetry_Int_Tables_number   1
_chemical_formula_structural   Li2FeC2(O2F)2
_chemical_formula_sum   'Li4 Fe2 C4 O8 F4'
_cell_volume   230.40738518
_cell_formula_units_Z   2
loop_
 _symmetry_equiv_pos_site_id
 _symmetry_equiv_pos_as_xyz
  1  'x, y, z'
loop_
 _atom_site_type_symbol
 _atom_site_label
 _atom_site_symmetry_multiplicity
 _atom_site_fract_x
 _atom_site_fract_y
 _atom_site_fract_z
 _atom_site_occupancy
  Li  Li0  1  0.81611700  0.54909200  0.06184800  1
  Li  Li1  1  0.18388300  0.45090800  0.93815200  1
  Li  Li2  1  0.18401800  0.95122500  0.43813200  1
  Li  Li3  1  0.81598200  0.04877500  0.56186800  1
  Fe  Fe4  1  0.99976300  0.24985400  0.24984600  1
  Fe  Fe5  1  0.00023700  0.75014600  0.75015400  1
  C  C6  1  0.56537200  0.27702400  0.35253300  1
  C  C7  1  0.43496500  0.22327300  0.14765600  1
  C  C8  1  0.43462800  0.72297600  0.64746700  1
  C  C9  1  0.56503500  0.77672700  0.85234400  1
  O  O10  1  0.46001800  0.19909300  0.45133000  1
  O  O11  1  0.78255400  0.41080400  0.41252000  1
  O  O12  1  0.21782100  0.08984200  0.08790900  1
  O  O13  1  0.54050000  0.30102500  0.04889500  1
  O  O14  1  0.53998200  0.80090700  0.54867000  1
  O  O15  1  0.21744600  0.58919600  0.58748000  1
  O  O16  1  0.78217900  0.91015800  0.91209100  1
  O  O17  1  0.45950000  0.69897500  0.95110500  1
  F  F18  1  0.91945800  0.95596700  0.31377100  1
  F  F19  1  0.08054200  0.04403300  0.68622900  1
  F  F20  1  0.08017700  0.54395100  0.18614900  1
  F  F21  1  0.91982300  0.45604900  0.81385100  1
