# generated using pymatgen
data_Li2FeC2(O2F)2
_symmetry_space_group_name_H-M   'P 1'
_cell_length_a   6.21618800
_cell_length_b   8.18857565
_cell_length_c   11.88429476
_cell_angle_alpha   128.29252950
_cell_angle_beta   90.00000000
_cell_angle_gamma   90.00000000
_symmetry_Int_Tables_number   1
_chemical_formula_structural   Li2FeC2(O2F)2
_chemical_formula_sum   'Li8 Fe4 C8 O16 F8'
_cell_volume   474.78452284
_cell_formula_units_Z   4
loop_
 _symmetry_equiv_pos_site_id
 _symmetry_equiv_pos_as_xyz
  1  'x, y, z'
loop_
 _atom_site_type_symbol
 _atom_site_label
 _atom_site_symmetry_multiplicity
 _atom_site_fract_x
 _atom_site_fract_y
 _atom_site_fract_z
 _atom_site_occupancy
  Li  Li0  1  0.25579600  0.03245600  0.85050700  1
  Li  Li1  1  0.75579600  0.96754400  0.14949300  1
  Li  Li2  1  0.85504700  0.68315900  0.65728600  1
  Li  Li3  1  0.35504700  0.31684100  0.34271400  1
  Li  Li4  1  0.13282500  0.81781600  0.55820500  1
  Li  Li5  1  0.63282500  0.18218400  0.44179500  1
  Li  Li6  1  0.84793700  0.40216500  0.36418100  1
  Li  Li7  1  0.34793700  0.59783500  0.63581900  1
  Fe  Fe8  1  0.06859700  0.18183500  0.52524800  1
  Fe  Fe9  1  0.56859700  0.81816500  0.47475200  1
  Fe  Fe10  1  0.10416000  0.43931900  0.89652300  1
  Fe  Fe11  1  0.60416000  0.56068100  0.10347700  1
  C  C12  1  0.11903700  0.20718400  0.11477300  1
  C  C13  1  0.96055600  0.28856100  0.05929600  1
  C  C14  1  0.61903700  0.79281600  0.88522700  1
  C  C15  1  0.46055600  0.71143900  0.94070400  1
  C  C16  1  0.20936200  0.74553600  0.27872400  1
  C  C17  1  0.04751100  0.81741300  0.22090800  1
  C  C18  1  0.70936200  0.25446400  0.72127600  1
  C  C19  1  0.54751100  0.18258700  0.77909200  1
  O  O20  1  0.26614000  0.08967800  0.03163700  1
  O  O21  1  0.09173700  0.27407600  0.24291100  1
  O  O22  1  0.00668600  0.24312600  0.93824600  1
  O  O23  1  0.80536500  0.40170900  0.13876900  1
  O  O24  1  0.76614000  0.91032200  0.96836300  1
  O  O25  1  0.59173700  0.72592400  0.75708900  1
  O  O26  1  0.50668600  0.75687400  0.06175400  1
  O  O27  1  0.30536500  0.59829100  0.86123100  1
  O  O28  1  0.23478900  0.87239500  0.41530600  1
  O  O29  1  0.30655400  0.57669500  0.19291000  1
  O  O30  1  0.98980400  0.00492300  0.30623700  1
  O  O31  1  0.97389000  0.69183100  0.09387800  1
  O  O32  1  0.73478900  0.12760500  0.58469400  1
  O  O33  1  0.80655400  0.42330500  0.80709000  1
  O  O34  1  0.48980400  0.99507700  0.69376300  1
  O  O35  1  0.47389000  0.30816900  0.90612200  1
  F  F36  1  0.38749300  0.61020500  0.47065600  1
  F  F37  1  0.88749300  0.38979500  0.52934400  1
  F  F38  1  0.34758400  0.30058300  0.50395700  1
  F  F39  1  0.84758400  0.69941700  0.49604300  1
  F  F40  1  0.12646800  0.79004200  0.70250300  1
  F  F41  1  0.62646800  0.20995800  0.29749700  1
  F  F42  1  0.65121900  0.82343300  0.31591600  1
  F  F43  1  0.15121900  0.17656700  0.68408400  1
