# generated using pymatgen
data_Li2FeC2(O2F)2
_symmetry_space_group_name_H-M   'P 1'
_cell_length_a   7.30248188
_cell_length_b   7.30248244
_cell_length_c   6.49275788
_cell_angle_alpha   61.45769098
_cell_angle_beta   61.45769170
_cell_angle_gamma   51.60903397
_symmetry_Int_Tables_number   1
_chemical_formula_structural   Li2FeC2(O2F)2
_chemical_formula_sum   'Li4 Fe2 C4 O8 F4'
_cell_volume   230.00196021
_cell_formula_units_Z   2
loop_
 _symmetry_equiv_pos_site_id
 _symmetry_equiv_pos_as_xyz
  1  'x, y, z'
loop_
 _atom_site_type_symbol
 _atom_site_label
 _atom_site_symmetry_multiplicity
 _atom_site_fract_x
 _atom_site_fract_y
 _atom_site_fract_z
 _atom_site_occupancy
  Li  Li0  1  0.55426000  0.55756900  0.39534700  1
  Li  Li1  1  0.55756900  0.55426000  0.89534700  1
  Li  Li2  1  0.16242100  0.64126100  0.30617800  1
  Li  Li3  1  0.64126100  0.16242100  0.80617800  1
  Fe  Fe4  1  0.96573600  0.12350800  0.15933100  1
  Fe  Fe5  1  0.12350800  0.96573600  0.65933100  1
  C  C6  1  0.61135800  0.92831700  0.43611300  1
  C  C7  1  0.41855600  0.19794100  0.39782300  1
  C  C8  1  0.92831700  0.61135800  0.93611300  1
  C  C9  1  0.19794100  0.41855600  0.89782300  1
  O  O10  1  0.82829300  0.87368000  0.36512600  1
  O  O11  1  0.53483100  0.78130600  0.53875200  1
  O  O12  1  0.48840300  0.35027900  0.29583000  1
  O  O13  1  0.20005300  0.25468300  0.46910300  1
  O  O14  1  0.87368000  0.82829300  0.86512600  1
  O  O15  1  0.78130600  0.53483100  0.03875200  1
  O  O16  1  0.35027900  0.48840300  0.79583000  1
  O  O17  1  0.25468300  0.20005300  0.96910300  1
  F  F18  1  0.82024300  0.22352600  0.88094800  1
  F  F19  1  0.22352600  0.82024300  0.38094800  1
  F  F20  1  0.22768500  0.82441400  0.98248900  1
  F  F21  1  0.82441400  0.22768500  0.48248900  1
