# generated using pymatgen
data_Li2FeC2(O2F)2
_symmetry_space_group_name_H-M   'P 1'
_cell_length_a   3.23442000
_cell_length_b   7.85725642
_cell_length_c   9.17075127
_cell_angle_alpha   88.00991652
_cell_angle_beta   90.00000000
_cell_angle_gamma   90.00000000
_symmetry_Int_Tables_number   1
_chemical_formula_structural   Li2FeC2(O2F)2
_chemical_formula_sum   'Li4 Fe2 C4 O8 F4'
_cell_volume   232.92185087
_cell_formula_units_Z   2
loop_
 _symmetry_equiv_pos_site_id
 _symmetry_equiv_pos_as_xyz
  1  'x, y, z'
loop_
 _atom_site_type_symbol
 _atom_site_label
 _atom_site_symmetry_multiplicity
 _atom_site_fract_x
 _atom_site_fract_y
 _atom_site_fract_z
 _atom_site_occupancy
  Li  Li0  1  0.81304100  0.89380500  0.19746300  1
  Li  Li1  1  0.18695900  0.39380500  0.69746300  1
  Li  Li2  1  0.18292300  0.73529400  0.93063500  1
  Li  Li3  1  0.81707700  0.23529400  0.43063600  1
  Fe  Fe4  1  0.62812700  0.08523500  0.87243600  1
  Fe  Fe5  1  0.37187300  0.58523500  0.37243600  1
  C  C6  1  0.00610300  0.73044000  0.62148100  1
  C  C7  1  0.00127600  0.92688000  0.62895800  1
  C  C8  1  0.99389700  0.23044000  0.12148100  1
  C  C9  1  0.99872400  0.42688000  0.12895800  1
  O  O10  1  0.87012400  0.66569700  0.50426200  1
  O  O11  1  0.15595700  0.64574300  0.72690000  1
  O  O12  1  0.86628600  0.01208400  0.52402100  1
  O  O13  1  0.13277800  0.98355400  0.75181900  1
  O  O14  1  0.12987600  0.16569700  0.00426200  1
  O  O15  1  0.84404300  0.14574300  0.22690000  1
  O  O16  1  0.13371400  0.51208400  0.02402100  1
  O  O17  1  0.86722200  0.48355400  0.25181900  1
  F  F18  1  0.67587900  0.85703600  0.98371900  1
  F  F19  1  0.32412100  0.35703600  0.48371900  1
  F  F20  1  0.68004200  0.29951200  0.75791800  1
  F  F21  1  0.31995800  0.79951200  0.25791800  1
