# generated using pymatgen
data_Li2FeC2(O2F)2
_symmetry_space_group_name_H-M   'P 1'
_cell_length_a   4.95708439
_cell_length_b   5.59305331
_cell_length_c   9.72193549
_cell_angle_alpha   75.42415324
_cell_angle_beta   93.96958735
_cell_angle_gamma   86.99259121
_symmetry_Int_Tables_number   1
_chemical_formula_structural   Li2FeC2(O2F)2
_chemical_formula_sum   'Li4 Fe2 C4 O8 F4'
_cell_volume   259.55931402
_cell_formula_units_Z   2
loop_
 _symmetry_equiv_pos_site_id
 _symmetry_equiv_pos_as_xyz
  1  'x, y, z'
loop_
 _atom_site_type_symbol
 _atom_site_label
 _atom_site_symmetry_multiplicity
 _atom_site_fract_x
 _atom_site_fract_y
 _atom_site_fract_z
 _atom_site_occupancy
  Li  Li0  1  0.55529800  0.14134800  0.50438000  1
  Li  Li1  1  0.94209900  0.09452200  0.01115900  1
  Li  Li2  1  0.04713600  0.09792100  0.28312500  1
  Li  Li3  1  0.23478800  0.11249300  0.75989300  1
  Fe  Fe4  1  0.16704200  0.66502200  0.58607000  1
  Fe  Fe5  1  0.31945100  0.56221800  0.96449100  1
  C  C6  1  0.80031600  0.48971500  0.81232600  1
  C  C7  1  0.68020000  0.74338200  0.72690100  1
  C  C8  1  0.79954200  0.51568900  0.34314300  1
  C  C9  1  0.73161700  0.70769200  0.19827400  1
  O  O10  1  0.66137900  0.36096900  0.90233500  1
  O  O11  1  0.04056200  0.42729500  0.78691200  1
  O  O12  1  0.43667400  0.79741000  0.75103900  1
  O  O13  1  0.81911600  0.87691700  0.63932800  1
  O  O14  1  0.76106300  0.29153500  0.35048500  1
  O  O15  1  0.88913800  0.59918400  0.44485000  1
  O  O16  1  0.57355700  0.65300000  0.10600300  1
  O  O17  1  0.84588200  0.90731800  0.18279500  1
  F  F18  1  0.16188200  0.29157100  0.09470200  1
  F  F19  1  0.28381100  0.95628900  0.44941700  1
  F  F20  1  0.39482000  0.34234300  0.61326500  1
  F  F21  1  0.08717300  0.88633200  0.91308400  1
