# generated using pymatgen
data_Li2FeC2(O2F)2
_symmetry_space_group_name_H-M   'P 1'
_cell_length_a   4.99412597
_cell_length_b   5.45258219
_cell_length_c   8.21926200
_cell_angle_alpha   90.00000000
_cell_angle_beta   90.00000000
_cell_angle_gamma   89.61788756
_symmetry_Int_Tables_number   1
_chemical_formula_structural   Li2FeC2(O2F)2
_chemical_formula_sum   'Li4 Fe2 C4 O8 F4'
_cell_volume   223.81277892
_cell_formula_units_Z   2
loop_
 _symmetry_equiv_pos_site_id
 _symmetry_equiv_pos_as_xyz
  1  'x, y, z'
loop_
 _atom_site_type_symbol
 _atom_site_label
 _atom_site_symmetry_multiplicity
 _atom_site_fract_x
 _atom_site_fract_y
 _atom_site_fract_z
 _atom_site_occupancy
  Li  Li0  1  0.94475100  0.09709400  0.45330500  1
  Li  Li1  1  0.44475100  0.59709400  0.54669500  1
  Li  Li2  1  0.94473800  0.59821900  0.45440600  1
  Li  Li3  1  0.44473800  0.09821900  0.54559400  1
  Fe  Fe4  1  0.95528800  0.34696400  0.82037600  1
  Fe  Fe5  1  0.45528800  0.84696400  0.17962400  1
  C  C6  1  0.31587200  0.34823500  0.23240100  1
  C  C7  1  0.56818300  0.34608100  0.12557000  1
  C  C8  1  0.81587200  0.84823500  0.76759900  1
  C  C9  1  0.06818300  0.84608100  0.87443000  1
  O  O10  1  0.22093400  0.55548100  0.27277800  1
  O  O11  1  0.22063500  0.14260700  0.27311700  1
  O  O12  1  0.66334300  0.55044400  0.08393900  1
  O  O13  1  0.66275600  0.13995300  0.08460600  1
  O  O14  1  0.72093400  0.05548100  0.72722200  1
  O  O15  1  0.72063500  0.64260700  0.72688300  1
  O  O16  1  0.16334400  0.05044400  0.91606100  1
  O  O17  1  0.16275600  0.63995300  0.91539400  1
  F  F18  1  0.67323000  0.84823500  0.40076300  1
  F  F19  1  0.17323000  0.34823500  0.59923700  1
  F  F20  1  0.67884300  0.34832500  0.45195500  1
  F  F21  1  0.17884300  0.84832500  0.54804500  1
