# generated using pymatgen
data_Li2FeC2(O2F)2
_symmetry_space_group_name_H-M   'P 1'
_cell_length_a   3.21283333
_cell_length_b   8.91741651
_cell_length_c   8.70277435
_cell_angle_alpha   98.30689170
_cell_angle_beta   74.14155412
_cell_angle_gamma   99.94215228
_symmetry_Int_Tables_number   1
_chemical_formula_structural   Li2FeC2(O2F)2
_chemical_formula_sum   'Li4 Fe2 C4 O8 F4'
_cell_volume   234.99546596
_cell_formula_units_Z   2
loop_
 _symmetry_equiv_pos_site_id
 _symmetry_equiv_pos_as_xyz
  1  'x, y, z'
loop_
 _atom_site_type_symbol
 _atom_site_label
 _atom_site_symmetry_multiplicity
 _atom_site_fract_x
 _atom_site_fract_y
 _atom_site_fract_z
 _atom_site_occupancy
  Li  Li0  1  0.76715100  0.79357300  0.43251800  1
  Li  Li1  1  0.53659000  0.91281400  0.15977900  1
  Li  Li2  1  0.82896700  0.23183000  0.20519300  1
  Li  Li3  1  0.58324500  0.35792500  0.79025600  1
  Fe  Fe4  1  0.15188100  0.12156700  0.51127700  1
  Fe  Fe5  1  0.04973600  0.65991800  0.92253900  1
  C  C6  1  0.84697900  0.41268800  0.47069800  1
  C  C7  1  0.05180400  0.55081400  0.56780600  1
  C  C8  1  0.76927500  0.92956700  0.77707400  1
  C  C9  1  0.91041700  0.08184000  0.86948500  1
  O  O10  1  0.70183000  0.28927400  0.54555500  1
  O  O11  1  0.82634200  0.42755600  0.33460200  1
  O  O12  1  0.09620400  0.52361700  0.70290000  1
  O  O13  1  0.15945100  0.67463000  0.50825600  1
  O  O14  1  0.75074100  0.94037300  0.63628800  1
  O  O15  1  0.66949600  0.80859800  0.84792000  1
  O  O16  1  0.04912200  0.19464300  0.78406200  1
  O  O17  1  0.87466600  0.08545800  0.01618300  1
  F  F18  1  0.45087200  0.51612300  0.96158400  1
  F  F19  1  0.23535300  0.15922600  0.28291400  1
  F  F20  1  0.00339900  0.79235600  0.12726000  1
  F  F21  1  0.45621000  0.93997100  0.38331700  1
