# generated using pymatgen
data_Li2FeC2(O2F)2
_symmetry_space_group_name_H-M   'P 1'
_cell_length_a   3.37771465
_cell_length_b   6.26632717
_cell_length_c   11.97953363
_cell_angle_alpha   78.17286889
_cell_angle_beta   96.00751756
_cell_angle_gamma   67.47026156
_symmetry_Int_Tables_number   1
_chemical_formula_structural   Li2FeC2(O2F)2
_chemical_formula_sum   'Li4 Fe2 C4 O8 F4'
_cell_volume   224.47845672
_cell_formula_units_Z   2
loop_
 _symmetry_equiv_pos_site_id
 _symmetry_equiv_pos_as_xyz
  1  'x, y, z'
loop_
 _atom_site_type_symbol
 _atom_site_label
 _atom_site_symmetry_multiplicity
 _atom_site_fract_x
 _atom_site_fract_y
 _atom_site_fract_z
 _atom_site_occupancy
  Li  Li0  1  0.93652700  0.95253800  0.29893700  1
  Li  Li1  1  0.11101700  0.39053600  0.30037900  1
  Li  Li2  1  0.42187300  0.77477300  0.14041400  1
  Li  Li3  1  0.35493500  0.22524600  0.75543900  1
  Fe  Fe4  1  0.80397500  0.21183000  0.53516500  1
  Fe  Fe5  1  0.17064500  0.69371100  0.87731600  1
  C  C6  1  0.83438400  0.30978800  0.07729500  1
  C  C7  1  0.76277800  0.18785900  0.98251900  1
  C  C8  1  0.80586100  0.66824200  0.48828700  1
  C  C9  1  0.78575200  0.76467000  0.59864900  1
  O  O10  1  0.60626800  0.53416200  0.04945100  1
  O  O11  1  0.10247600  0.18521300  0.17201700  1
  O  O12  1  0.44299200  0.32441700  0.89757100  1
  O  O13  1  0.00930300  0.97395700  0.99419700  1
  O  O14  1  0.10042900  0.45817400  0.49573600  1
  O  O15  1  0.53523600  0.80288100  0.39745600  1
  O  O16  1  0.04965700  0.63967100  0.69148700  1
  O  O17  1  0.49468300  0.98179100  0.57922800  1
  F  F18  1  0.99668600  0.70891100  0.22063500  1
  F  F19  1  0.53898200  0.87094400  0.83140100  1
  F  F20  1  0.82974400  0.23340800  0.69410900  1
  F  F21  1  0.72260800  0.23493300  0.36369000  1
