# generated using pymatgen
data_Li2FeC2(O2F)2
_symmetry_space_group_name_H-M   'P 1'
_cell_length_a   6.94142810
_cell_length_b   6.61854831
_cell_length_c   9.20787177
_cell_angle_alpha   81.80775021
_cell_angle_beta   127.95101739
_cell_angle_gamma   128.31261813
_symmetry_Int_Tables_number   1
_chemical_formula_structural   Li2FeC2(O2F)2
_chemical_formula_sum   'Li4 Fe2 C4 O8 F4'
_cell_volume   241.46111559
_cell_formula_units_Z   2
loop_
 _symmetry_equiv_pos_site_id
 _symmetry_equiv_pos_as_xyz
  1  'x, y, z'
loop_
 _atom_site_type_symbol
 _atom_site_label
 _atom_site_symmetry_multiplicity
 _atom_site_fract_x
 _atom_site_fract_y
 _atom_site_fract_z
 _atom_site_occupancy
  Li  Li0  1  0.99261200  0.57247800  0.48263000  1
  Li  Li1  1  0.10528000  0.84139800  0.16749000  1
  Li  Li2  1  0.44224100  0.32041000  0.09590100  1
  Li  Li3  1  0.98662500  0.37479200  0.18834400  1
  Fe  Fe4  1  0.68419000  0.92058800  0.29315700  1
  Fe  Fe5  1  0.35533800  0.25336800  0.70894600  1
  C  C6  1  0.05294900  0.58254300  0.89277000  1
  C  C7  1  0.30969300  0.82322800  0.88032000  1
  C  C8  1  0.60606600  0.87571000  0.57493600  1
  C  C9  1  0.67679800  0.82237400  0.76445500  1
  O  O10  1  0.75188600  0.41721700  0.73616100  1
  O  O11  1  0.17037500  0.58302100  0.06796700  1
  O  O12  1  0.19924100  0.85922500  0.71810300  1
  O  O13  1  0.61321600  0.97766100  0.03986100  1
  O  O14  1  0.84223900  0.01201900  0.57839300  1
  O  O15  1  0.30792100  0.76047700  0.42273300  1
  O  O16  1  0.97391400  0.97135600  0.93057700  1
  O  O17  1  0.41598100  0.61292200  0.73011000  1
  F  F18  1  0.16888900  0.24909500  0.43248400  1
  F  F19  1  0.66342800  0.42601000  0.01176700  1
  F  F20  1  0.59255000  0.17272700  0.27977400  1
  F  F21  1  0.73092900  0.65286900  0.29614900  1
