# generated using pymatgen
data_Li2FeC2(O2F)2
_symmetry_space_group_name_H-M   'P 1'
_cell_length_a   3.18963703
_cell_length_b   5.07979934
_cell_length_c   13.59033200
_cell_angle_alpha   90.00000000
_cell_angle_beta   90.00000000
_cell_angle_gamma   86.44408486
_symmetry_Int_Tables_number   1
_chemical_formula_structural   Li2FeC2(O2F)2
_chemical_formula_sum   'Li4 Fe2 C4 O8 F4'
_cell_volume   219.77634904
_cell_formula_units_Z   2
loop_
 _symmetry_equiv_pos_site_id
 _symmetry_equiv_pos_as_xyz
  1  'x, y, z'
loop_
 _atom_site_type_symbol
 _atom_site_label
 _atom_site_symmetry_multiplicity
 _atom_site_fract_x
 _atom_site_fract_y
 _atom_site_fract_z
 _atom_site_occupancy
  Li  Li0  1  0.55664600  0.02785900  0.00048800  1
  Li  Li1  1  0.44335400  0.97214100  0.50048800  1
  Li  Li2  1  0.14082500  0.57591200  0.07201900  1
  Li  Li3  1  0.85917500  0.42408800  0.57201900  1
  Fe  Fe4  1  0.88630500  0.46420100  0.36464200  1
  Fe  Fe5  1  0.11369500  0.53579900  0.86464200  1
  C  C6  1  0.63180700  0.87980300  0.21249500  1
  C  C7  1  0.41054700  0.15885500  0.20571000  1
  C  C8  1  0.36819300  0.12019700  0.71249500  1
  C  C9  1  0.58945300  0.84114500  0.70571000  1
  O  O10  1  0.80111600  0.81562200  0.29350900  1
  O  O11  1  0.62958800  0.74348200  0.13483600  1
  O  O12  1  0.40057800  0.30282400  0.28314200  1
  O  O13  1  0.24833500  0.22206100  0.12463500  1
  O  O14  1  0.19888400  0.18437800  0.79350900  1
  O  O15  1  0.37041200  0.25651800  0.63483600  1
  O  O16  1  0.59942200  0.69717600  0.78314200  1
  O  O17  1  0.75166500  0.77793900  0.62463500  1
  F  F18  1  0.63153200  0.38582000  0.95460900  1
  F  F19  1  0.36846800  0.61418000  0.45460900  1
  F  F20  1  0.08140500  0.82870600  0.96517500  1
  F  F21  1  0.91859500  0.17129400  0.46517500  1
