# generated using pymatgen
data_Li2FeC2(O2F)2
_symmetry_space_group_name_H-M   'P 1'
_cell_length_a   5.15091038
_cell_length_b   3.18782163
_cell_length_c   14.59398206
_cell_angle_alpha   78.28917234
_cell_angle_beta   102.83884775
_cell_angle_gamma   96.85496016
_symmetry_Int_Tables_number   1
_chemical_formula_structural   Li2FeC2(O2F)2
_chemical_formula_sum   'Li4 Fe2 C4 O8 F4'
_cell_volume   228.08824059
_cell_formula_units_Z   2
loop_
 _symmetry_equiv_pos_site_id
 _symmetry_equiv_pos_as_xyz
  1  'x, y, z'
loop_
 _atom_site_type_symbol
 _atom_site_label
 _atom_site_symmetry_multiplicity
 _atom_site_fract_x
 _atom_site_fract_y
 _atom_site_fract_z
 _atom_site_occupancy
  Li  Li0  1  0.86965900  0.43426500  0.98192900  1
  Li  Li1  1  0.64656900  0.98103200  0.30790000  1
  Li  Li2  1  0.89391900  0.75759100  0.15451900  1
  Li  Li3  1  0.13343900  0.25479500  0.34386200  1
  Fe  Fe4  1  0.75852300  0.42210800  0.49637400  1
  Fe  Fe5  1  0.00908800  0.00416700  0.80394800  1
  C  C6  1  0.25397000  0.58525400  0.66033700  1
  C  C7  1  0.51634700  0.82874500  0.63772700  1
  C  C8  1  0.41793700  0.74926600  0.01742500  1
  C  C9  1  0.35523800  0.44447400  0.10975700  1
  O  O10  1  0.10646600  0.40440100  0.59706000  1
  O  O11  1  0.20965200  0.56861100  0.74434400  1
  O  O12  1  0.56220000  0.83598400  0.55432000  1
  O  O13  1  0.66032200  0.02173600  0.69915500  1
  O  O14  1  0.22054400  0.86041100  0.95239800  1
  O  O15  1  0.66271700  0.86079500  0.01744600  1
  O  O16  1  0.11023400  0.34475800  0.11196300  1
  O  O17  1  0.55285800  0.31935600  0.17312100  1
  F  F18  1  0.49239600  0.44010000  0.36710200  1
  F  F19  1  0.97458000  0.77461000  0.28210300  1
  F  F20  1  0.83431600  0.43356700  0.85486000  1
  F  F21  1  0.91532200  0.01412200  0.43267900  1
