# generated using pymatgen
data_Li2FeC2(O2F)2
_symmetry_space_group_name_H-M   'P 1'
_cell_length_a   5.11817851
_cell_length_b   5.01393891
_cell_length_c   9.81833800
_cell_angle_alpha   90.00000000
_cell_angle_beta   90.00000000
_cell_angle_gamma   109.32506314
_symmetry_Int_Tables_number   1
_chemical_formula_structural   Li2FeC2(O2F)2
_chemical_formula_sum   'Li4 Fe2 C4 O8 F4'
_cell_volume   237.76410051
_cell_formula_units_Z   2
loop_
 _symmetry_equiv_pos_site_id
 _symmetry_equiv_pos_as_xyz
  1  'x, y, z'
loop_
 _atom_site_type_symbol
 _atom_site_label
 _atom_site_symmetry_multiplicity
 _atom_site_fract_x
 _atom_site_fract_y
 _atom_site_fract_z
 _atom_site_occupancy
  Li  Li0  1  0.14305900  0.88456900  0.94388200  1
  Li  Li1  1  0.85694100  0.11543100  0.44388200  1
  Li  Li2  1  0.21216200  0.94818900  0.32511400  1
  Li  Li3  1  0.78783800  0.05181100  0.82511400  1
  Fe  Fe4  1  0.88668800  0.33288700  0.14909900  1
  Fe  Fe5  1  0.11331200  0.66711300  0.64909900  1
  C  C6  1  0.35867500  0.24978100  0.72700200  1
  C  C7  1  0.53449600  0.41463000  0.60776900  1
  C  C8  1  0.64132500  0.75021900  0.22700200  1
  C  C9  1  0.46550400  0.58537000  0.10776900  1
  O  O10  1  0.15937300  0.32941900  0.76336600  1
  O  O11  1  0.41373500  0.04227500  0.77991600  1
  O  O12  1  0.45571100  0.60499000  0.55644300  1
  O  O13  1  0.74597100  0.35112300  0.57179200  1
  O  O14  1  0.84062700  0.67058100  0.26336600  1
  O  O15  1  0.58626500  0.95772500  0.27991600  1
  O  O16  1  0.54428900  0.39501000  0.05644300  1
  O  O17  1  0.25402900  0.64887700  0.07179200  1
  F  F18  1  0.87319100  0.72025700  0.79905900  1
  F  F19  1  0.12680900  0.27974300  0.29905900  1
  F  F20  1  0.11540200  0.95262600  0.51040800  1
  F  F21  1  0.88459800  0.04737400  0.01040800  1
