# generated using pymatgen
data_Li2FeC2(O2F)2
_symmetry_space_group_name_H-M   'P 1'
_cell_length_a   5.85196944
_cell_length_b   7.49298193
_cell_length_c   10.08632700
_cell_angle_alpha   90.00000000
_cell_angle_beta   90.00000000
_cell_angle_gamma   86.24516796
_symmetry_Int_Tables_number   1
_chemical_formula_structural   Li2FeC2(O2F)2
_chemical_formula_sum   'Li8 Fe4 C8 O16 F8'
_cell_volume   441.32295975
_cell_formula_units_Z   4
loop_
 _symmetry_equiv_pos_site_id
 _symmetry_equiv_pos_as_xyz
  1  'x, y, z'
loop_
 _atom_site_type_symbol
 _atom_site_label
 _atom_site_symmetry_multiplicity
 _atom_site_fract_x
 _atom_site_fract_y
 _atom_site_fract_z
 _atom_site_occupancy
  Li  Li0  1  0.28939100  0.08095200  0.97879800  1
  Li  Li1  1  0.71060900  0.91904800  0.47879800  1
  Li  Li2  1  0.20540100  0.91835500  0.74706300  1
  Li  Li3  1  0.79459900  0.08164500  0.24706300  1
  Li  Li4  1  0.12375600  0.08571100  0.49685500  1
  Li  Li5  1  0.87624400  0.91428900  0.99685500  1
  Li  Li6  1  0.37883400  0.91537500  0.22834700  1
  Li  Li7  1  0.62116600  0.08462500  0.72834700  1
  Fe  Fe8  1  0.95118000  0.70228400  0.25025400  1
  Fe  Fe9  1  0.04882000  0.29771600  0.75025400  1
  Fe  Fe10  1  0.54930600  0.29780600  0.47484000  1
  Fe  Fe11  1  0.45069400  0.70219400  0.97484000  1
  C  C12  1  0.35640700  0.30586800  0.20498700  1
  C  C13  1  0.40953000  0.49688400  0.24552800  1
  C  C14  1  0.64359300  0.69413200  0.70498700  1
  C  C15  1  0.59047000  0.50311600  0.74552800  1
  C  C16  1  0.09237400  0.50338900  0.47952700  1
  C  C17  1  0.14374000  0.69458000  0.52043300  1
  C  C18  1  0.90762600  0.49661100  0.97952700  1
  C  C19  1  0.85626000  0.30542000  0.02043300  1
  O  O20  1  0.39815000  0.18604100  0.29440500  1
  O  O21  1  0.27851000  0.28277800  0.09219300  1
  O  O22  1  0.50342300  0.51646500  0.35690100  1
  O  O23  1  0.34522200  0.62690800  0.16889700  1
  O  O24  1  0.60185000  0.81395900  0.79440500  1
  O  O25  1  0.72149000  0.71722200  0.59219300  1
  O  O26  1  0.49657700  0.48353500  0.85690100  1
  O  O27  1  0.65477800  0.37309200  0.66889700  1
  O  O28  1  0.00007500  0.48361100  0.36774700  1
  O  O29  1  0.15634100  0.37341100  0.55630200  1
  O  O30  1  0.10132900  0.81459400  0.43116900  1
  O  O31  1  0.22122800  0.71771000  0.63331600  1
  O  O32  1  0.99992500  0.51638900  0.86774700  1
  O  O33  1  0.84365900  0.62658900  0.05630200  1
  O  O34  1  0.89867100  0.18540600  0.93116900  1
  O  O35  1  0.77877200  0.28229000  0.13331600  1
  F  F36  1  0.45863300  0.06686600  0.55389100  1
  F  F37  1  0.54136700  0.93313400  0.05389100  1
  F  F38  1  0.95699000  0.06715300  0.67086500  1
  F  F39  1  0.04301000  0.93284700  0.17086500  1
  F  F40  1  0.16423900  0.85766700  0.92173000  1
  F  F41  1  0.83576100  0.14233300  0.42173000  1
  F  F42  1  0.66668300  0.85953600  0.30350100  1
  F  F43  1  0.33331700  0.14046400  0.80350100  1
