# generated using pymatgen
data_Li2FeC2(O2F)2
_symmetry_space_group_name_H-M   'P 1'
_cell_length_a   3.42100479
_cell_length_b   6.04701150
_cell_length_c   11.36960600
_cell_angle_alpha   90.00000000
_cell_angle_beta   90.00000000
_cell_angle_gamma   81.99087342
_symmetry_Int_Tables_number   1
_chemical_formula_structural   Li2FeC2(O2F)2
_chemical_formula_sum   'Li4 Fe2 C4 O8 F4'
_cell_volume   232.90721348
_cell_formula_units_Z   2
loop_
 _symmetry_equiv_pos_site_id
 _symmetry_equiv_pos_as_xyz
  1  'x, y, z'
loop_
 _atom_site_type_symbol
 _atom_site_label
 _atom_site_symmetry_multiplicity
 _atom_site_fract_x
 _atom_site_fract_y
 _atom_site_fract_z
 _atom_site_occupancy
  Li  Li0  1  0.53338500  0.45815800  0.29168300  1
  Li  Li1  1  0.46661500  0.54184200  0.79168300  1
  Li  Li2  1  0.07870300  0.99308100  0.23901100  1
  Li  Li3  1  0.92129700  0.00691900  0.73901100  1
  Fe  Fe4  1  0.13794500  0.69479300  0.50319900  1
  Fe  Fe5  1  0.86205500  0.30520700  0.00319900  1
  C  C6  1  0.76064900  0.27276300  0.52059200  1
  C  C7  1  0.55818600  0.09911600  0.45390800  1
  C  C8  1  0.23935100  0.72723700  0.02059200  1
  C  C9  1  0.44181400  0.90088400  0.95390800  1
  O  O10  1  0.70563500  0.47176300  0.47681500  1
  O  O11  1  0.96993800  0.21390600  0.60708000  1
  O  O12  1  0.39196700  0.15543100  0.35764400  1
  O  O13  1  0.58053200  0.90795800  0.50252700  1
  O  O14  1  0.29436500  0.52823700  0.97681500  1
  O  O15  1  0.03006200  0.78609400  0.10708000  1
  O  O16  1  0.60803300  0.84456900  0.85764400  1
  O  O17  1  0.41946800  0.09204200  0.00252700  1
  F  F18  1  0.85610800  0.29479400  0.82860300  1
  F  F19  1  0.14389200  0.70520600  0.32860300  1
  F  F20  1  0.15320400  0.70751300  0.67651600  1
  F  F21  1  0.84679600  0.29248700  0.17651600  1
