# generated using pymatgen
data_Li2FeC2(O2F)2
_symmetry_space_group_name_H-M   'P 1'
_cell_length_a   3.80024400
_cell_length_b   5.93524122
_cell_length_c   11.93316844
_cell_angle_alpha   87.94299934
_cell_angle_beta   90.00000000
_cell_angle_gamma   90.00000000
_symmetry_Int_Tables_number   1
_chemical_formula_structural   Li2FeC2(O2F)2
_chemical_formula_sum   'Li4 Fe2 C4 O8 F4'
_cell_volume   268.98352651
_cell_formula_units_Z   2
loop_
 _symmetry_equiv_pos_site_id
 _symmetry_equiv_pos_as_xyz
  1  'x, y, z'
loop_
 _atom_site_type_symbol
 _atom_site_label
 _atom_site_symmetry_multiplicity
 _atom_site_fract_x
 _atom_site_fract_y
 _atom_site_fract_z
 _atom_site_occupancy
  Li  Li0  1  0.55592600  0.67953000  0.94253300  1
  Li  Li1  1  0.55592600  0.32047000  0.05746700  1
  Li  Li2  1  0.05767400  0.63022200  0.15556600  1
  Li  Li3  1  0.05767400  0.36977800  0.84443400  1
  Fe  Fe4  1  0.01630800  0.80060200  0.40180300  1
  Fe  Fe5  1  0.01630800  0.19939800  0.59819700  1
  C  C6  1  0.04542600  0.13915500  0.21508600  1
  C  C7  1  0.02985600  0.27808800  0.32382300  1
  C  C8  1  0.04542600  0.86084500  0.78491400  1
  C  C9  1  0.02985600  0.72191200  0.67617700  1
  O  O10  1  0.04102500  0.92819800  0.22664100  1
  O  O11  1  0.05981800  0.25139800  0.12192200  1
  O  O12  1  0.01417800  0.16601100  0.41578500  1
  O  O13  1  0.03338200  0.48838300  0.30927400  1
  O  O14  1  0.04102500  0.07180200  0.77335900  1
  O  O15  1  0.05981800  0.74860200  0.87807800  1
  O  O16  1  0.01417800  0.83398900  0.58421500  1
  O  O17  1  0.03338200  0.51161700  0.69072600  1
  F  F18  1  0.55545500  0.37714000  0.90653900  1
  F  F19  1  0.55545500  0.62286000  0.09346100  1
  F  F20  1  0.51721500  0.22326200  0.59197500  1
  F  F21  1  0.51721500  0.77673800  0.40802500  1
