# generated using pymatgen
data_Li2FeC2(O2F)2
_symmetry_space_group_name_H-M   'P 1'
_cell_length_a   5.99704624
_cell_length_b   7.89399050
_cell_length_c   5.73821412
_cell_angle_alpha   67.37896495
_cell_angle_beta   87.69983419
_cell_angle_gamma   76.15509137
_symmetry_Int_Tables_number   1
_chemical_formula_structural   Li2FeC2(O2F)2
_chemical_formula_sum   'Li4 Fe2 C4 O8 F4'
_cell_volume   243.05855620
_cell_formula_units_Z   2
loop_
 _symmetry_equiv_pos_site_id
 _symmetry_equiv_pos_as_xyz
  1  'x, y, z'
loop_
 _atom_site_type_symbol
 _atom_site_label
 _atom_site_symmetry_multiplicity
 _atom_site_fract_x
 _atom_site_fract_y
 _atom_site_fract_z
 _atom_site_occupancy
  Li  Li0  1  0.80280400  0.42429400  0.20938600  1
  Li  Li1  1  0.19719600  0.57570600  0.79061400  1
  Li  Li2  1  0.14543500  0.83614600  0.05190400  1
  Li  Li3  1  0.85456500  0.16385400  0.94809600  1
  Fe  Fe4  1  0.38720300  0.14994700  0.20586800  1
  Fe  Fe5  1  0.61279700  0.85005300  0.79413200  1
  C  C6  1  0.22399800  0.45752700  0.37783800  1
  C  C7  1  0.33709100  0.28504200  0.61474700  1
  C  C8  1  0.77600200  0.54247300  0.62216200  1
  C  C9  1  0.66290900  0.71495800  0.38525300  1
  O  O10  1  0.18194500  0.42423400  0.18543700  1
  O  O11  1  0.17651300  0.61665300  0.39296300  1
  O  O12  1  0.39393200  0.12586900  0.59484300  1
  O  O13  1  0.36131100  0.31711800  0.80914800  1
  O  O14  1  0.81805500  0.57576600  0.81456300  1
  O  O15  1  0.82348700  0.38334700  0.60703700  1
  O  O16  1  0.60606800  0.87413100  0.40515700  1
  O  O17  1  0.63868900  0.68288200  0.19085200  1
  F  F18  1  0.14845900  0.04737200  0.12368700  1
  F  F19  1  0.85154100  0.95262800  0.87631300  1
  F  F20  1  0.32456000  0.75322100  0.82272900  1
  F  F21  1  0.67544000  0.24677900  0.17727100  1
