# generated using pymatgen
data_Li2FeC2(O2F)2
_symmetry_space_group_name_H-M   'P 1'
_cell_length_a   5.00286700
_cell_length_b   5.23262213
_cell_length_c   8.82341173
_cell_angle_alpha   95.94892989
_cell_angle_beta   90.00000000
_cell_angle_gamma   90.00000000
_symmetry_Int_Tables_number   1
_chemical_formula_structural   Li2FeC2(O2F)2
_chemical_formula_sum   'Li4 Fe2 C4 O8 F4'
_cell_volume   229.73636071
_cell_formula_units_Z   2
loop_
 _symmetry_equiv_pos_site_id
 _symmetry_equiv_pos_as_xyz
  1  'x, y, z'
loop_
 _atom_site_type_symbol
 _atom_site_label
 _atom_site_symmetry_multiplicity
 _atom_site_fract_x
 _atom_site_fract_y
 _atom_site_fract_z
 _atom_site_occupancy
  Li  Li0  1  0.16854100  0.20009800  0.70300700  1
  Li  Li1  1  0.83145900  0.70009800  0.20300700  1
  Li  Li2  1  0.25997500  0.74992800  0.49612400  1
  Li  Li3  1  0.74002500  0.24992800  0.99612400  1
  Fe  Fe4  1  0.68158800  0.74565200  0.79595200  1
  Fe  Fe5  1  0.31841200  0.24565200  0.29595200  1
  C  C6  1  0.18511900  0.62279900  0.94092200  1
  C  C7  1  0.29156000  0.86529700  0.03333600  1
  C  C8  1  0.81488100  0.12279900  0.44092200  1
  C  C9  1  0.70844000  0.36529700  0.53333600  1
  O  O10  1  0.34027300  0.50922900  0.84217600  1
  O  O11  1  0.94736300  0.55948000  0.96931500  1
  O  O12  1  0.51589100  0.94513800  0.99387500  1
  O  O13  1  0.14972300  0.96681300  0.14258800  1
  O  O14  1  0.65972700  0.00922900  0.34217600  1
  O  O15  1  0.05263700  0.05948000  0.46931500  1
  O  O16  1  0.48410900  0.44513800  0.49387500  1
  O  O17  1  0.85027700  0.46681300  0.64258800  1
  F  F18  1  0.93167700  0.04083800  0.82928400  1
  F  F19  1  0.06832300  0.54083800  0.32928400  1
  F  F20  1  0.56262600  0.44208800  0.16101800  1
  F  F21  1  0.43737400  0.94208800  0.66101800  1
