# generated using pymatgen
data_Li2FeC2(O2F)2
_symmetry_space_group_name_H-M   'P 1'
_cell_length_a   5.21355200
_cell_length_b   10.15892700
_cell_length_c   10.25200300
_cell_angle_alpha   90.00000000
_cell_angle_beta   90.00000000
_cell_angle_gamma   90.00000000
_symmetry_Int_Tables_number   1
_chemical_formula_structural   Li2FeC2(O2F)2
_chemical_formula_sum   'Li8 Fe4 C8 O16 F8'
_cell_volume   542.98805241
_cell_formula_units_Z   4
loop_
 _symmetry_equiv_pos_site_id
 _symmetry_equiv_pos_as_xyz
  1  'x, y, z'
loop_
 _atom_site_type_symbol
 _atom_site_label
 _atom_site_symmetry_multiplicity
 _atom_site_fract_x
 _atom_site_fract_y
 _atom_site_fract_z
 _atom_site_occupancy
  Li  Li0  1  0.03859100  0.91846100  0.84399200  1
  Li  Li1  1  0.96140900  0.08153900  0.34399200  1
  Li  Li2  1  0.53859100  0.08153900  0.84399200  1
  Li  Li3  1  0.46140900  0.91846100  0.34399200  1
  Li  Li4  1  0.56330900  0.57960800  0.35328000  1
  Li  Li5  1  0.43669100  0.42039200  0.85328000  1
  Li  Li6  1  0.06330900  0.42039200  0.35328000  1
  Li  Li7  1  0.93669100  0.57960800  0.85328000  1
  Fe  Fe8  1  0.98882200  0.24996000  0.87764400  1
  Fe  Fe9  1  0.01117800  0.75004000  0.37764400  1
  Fe  Fe10  1  0.48882200  0.75004000  0.87764400  1
  Fe  Fe11  1  0.51117800  0.24996000  0.37764400  1
  C  C12  1  0.37664000  0.79138800  0.60879900  1
  C  C13  1  0.62991100  0.70841700  0.61245600  1
  C  C14  1  0.62336000  0.20861200  0.10879900  1
  C  C15  1  0.37008900  0.29158300  0.11245600  1
  C  C16  1  0.87664000  0.20861200  0.60879900  1
  C  C17  1  0.12991100  0.29158300  0.61245600  1
  C  C18  1  0.12336000  0.79138800  0.10879900  1
  C  C19  1  0.87008900  0.70841700  0.11245600  1
  O  O20  1  0.29860400  0.82733500  0.49771100  1
  O  O21  1  0.26727600  0.81643200  0.71583300  1
  O  O22  1  0.72956100  0.67932500  0.50416000  1
  O  O23  1  0.71524000  0.67447900  0.72275800  1
  O  O24  1  0.70139600  0.17266500  0.99771100  1
  O  O25  1  0.73272400  0.18356800  0.21583300  1
  O  O26  1  0.27043900  0.32067500  0.00416000  1
  O  O27  1  0.28476000  0.32552100  0.22275800  1
  O  O28  1  0.79860400  0.17266500  0.49771100  1
  O  O29  1  0.76727600  0.18356800  0.71583300  1
  O  O30  1  0.22956100  0.32067500  0.50416000  1
  O  O31  1  0.21524000  0.32552100  0.72275800  1
  O  O32  1  0.20139600  0.82733500  0.99771100  1
  O  O33  1  0.23272400  0.81643200  0.21583300  1
  O  O34  1  0.77043900  0.67932500  0.00416000  1
  O  O35  1  0.78476000  0.67447900  0.22275800  1
  F  F36  1  0.28503200  0.58217100  0.87082900  1
  F  F37  1  0.71496800  0.41782900  0.37082900  1
  F  F38  1  0.78503200  0.41782900  0.87082900  1
  F  F39  1  0.21496800  0.58217100  0.37082900  1
  F  F40  1  0.18870600  0.08178200  0.85557900  1
  F  F41  1  0.81129400  0.91821800  0.35557900  1
  F  F42  1  0.68870600  0.91821800  0.85557900  1
  F  F43  1  0.31129400  0.08178200  0.35557900  1
