# generated using pymatgen
data_Li2FeC2(O2F)2
_symmetry_space_group_name_H-M   'P 1'
_cell_length_a   4.71145700
_cell_length_b   5.99898255
_cell_length_c   9.29959096
_cell_angle_alpha   78.97102382
_cell_angle_beta   75.32618441
_cell_angle_gamma   66.87814644
_symmetry_Int_Tables_number   1
_chemical_formula_structural   Li2FeC2(O2F)2
_chemical_formula_sum   'Li4 Fe2 C4 O8 F4'
_cell_volume   232.59605271
_cell_formula_units_Z   2
loop_
 _symmetry_equiv_pos_site_id
 _symmetry_equiv_pos_as_xyz
  1  'x, y, z'
loop_
 _atom_site_type_symbol
 _atom_site_label
 _atom_site_symmetry_multiplicity
 _atom_site_fract_x
 _atom_site_fract_y
 _atom_site_fract_z
 _atom_site_occupancy
  Li  Li0  1  0.15577100  0.74156300  0.88386400  1
  Li  Li1  1  0.21880200  0.24156300  0.38386400  1
  Li  Li2  1  0.91265000  0.93405600  0.16143600  1
  Li  Li3  1  0.99185800  0.43405600  0.66143600  1
  Fe  Fe4  1  0.43708700  0.20643600  0.90933700  1
  Fe  Fe5  1  0.44713800  0.70643600  0.40933700  1
  C  C6  1  0.60164700  0.89504600  0.66996100  1
  C  C7  1  0.82378200  0.04140800  0.62094500  1
  C  C8  1  0.83334700  0.39504600  0.16996100  1
  C  C9  1  0.51386600  0.54140800  0.12094500  1
  O  O10  1  0.64010900  0.72836000  0.59428400  1
  O  O11  1  0.39243900  0.95407900  0.78725500  1
  O  O12  1  0.03746300  0.99369900  0.50570900  1
  O  O13  1  0.77386700  0.20476600  0.70272700  1
  O  O14  1  0.03724700  0.22836000  0.09428400  1
  O  O15  1  0.86622600  0.45407900  0.28725500  1
  O  O16  1  0.46312900  0.49369900  0.00570900  1
  O  O17  1  0.31864100  0.70476600  0.20272700  1
  F  F18  1  0.77924400  0.92957000  0.99225900  1
  F  F19  1  0.29892700  0.42957000  0.49225900  1
  F  F20  1  0.12547800  0.49319700  0.81059800  1
  F  F21  1  0.57072800  0.99319700  0.31059800  1
