# generated using pymatgen
data_Li2FeC2(O2F)2
_symmetry_space_group_name_H-M   'P 1'
_cell_length_a   3.33307400
_cell_length_b   7.53679646
_cell_length_c   9.02855783
_cell_angle_alpha   91.26186761
_cell_angle_beta   90.00000000
_cell_angle_gamma   90.00000000
_symmetry_Int_Tables_number   1
_chemical_formula_structural   Li2FeC2(O2F)2
_chemical_formula_sum   'Li4 Fe2 C4 O8 F4'
_cell_volume   226.74869267
_cell_formula_units_Z   2
loop_
 _symmetry_equiv_pos_site_id
 _symmetry_equiv_pos_as_xyz
  1  'x, y, z'
loop_
 _atom_site_type_symbol
 _atom_site_label
 _atom_site_symmetry_multiplicity
 _atom_site_fract_x
 _atom_site_fract_y
 _atom_site_fract_z
 _atom_site_occupancy
  Li  Li0  1  0.23211700  0.89809200  0.10451500  1
  Li  Li1  1  0.23211700  0.60190800  0.39548500  1
  Li  Li2  1  0.76788300  0.10190800  0.89548500  1
  Li  Li3  1  0.76788300  0.39809200  0.60451500  1
  Fe  Fe4  1  0.66999000  0.25000000  0.25000000  1
  Fe  Fe5  1  0.33001000  0.75000000  0.75000000  1
  C  C6  1  0.88057800  0.50057400  0.92679100  1
  C  C7  1  0.88057800  0.99942600  0.57320900  1
  C  C8  1  0.11942200  0.49942600  0.07320900  1
  C  C9  1  0.11942200  0.00057400  0.42679100  1
  O  O10  1  0.75482000  0.35914300  0.87081500  1
  O  O11  1  0.82499900  0.65498900  0.87182300  1
  O  O12  1  0.75482000  0.14085700  0.62918500  1
  O  O13  1  0.82499900  0.84501100  0.62817700  1
  O  O14  1  0.24518000  0.64085700  0.12918500  1
  O  O15  1  0.17500100  0.34501100  0.12817700  1
  O  O16  1  0.24518000  0.85914300  0.37081500  1
  O  O17  1  0.17500100  0.15498900  0.37182300  1
  F  F18  1  0.72668500  0.03223300  0.11798600  1
  F  F19  1  0.72668500  0.46776700  0.38201400  1
  F  F20  1  0.27331500  0.96776700  0.88201400  1
  F  F21  1  0.27331500  0.53223300  0.61798600  1
