# generated using pymatgen
data_Li2FeC2(O2F)2
_symmetry_space_group_name_H-M   'P 1'
_cell_length_a   5.50881334
_cell_length_b   5.44926644
_cell_length_c   10.40380600
_cell_angle_alpha   90.00000000
_cell_angle_beta   90.00000000
_cell_angle_gamma   102.98634802
_symmetry_Int_Tables_number   1
_chemical_formula_structural   Li2FeC2(O2F)2
_chemical_formula_sum   'Li4 Fe2 C4 O8 F4'
_cell_volume   304.32396661
_cell_formula_units_Z   2
loop_
 _symmetry_equiv_pos_site_id
 _symmetry_equiv_pos_as_xyz
  1  'x, y, z'
loop_
 _atom_site_type_symbol
 _atom_site_label
 _atom_site_symmetry_multiplicity
 _atom_site_fract_x
 _atom_site_fract_y
 _atom_site_fract_z
 _atom_site_occupancy
  Li  Li0  1  0.40601000  0.72382100  0.27474000  1
  Li  Li1  1  0.59399000  0.27617900  0.77474000  1
  Li  Li2  1  0.59485600  0.77262100  0.90609400  1
  Li  Li3  1  0.40514400  0.22737900  0.40609400  1
  Fe  Fe4  1  0.50991200  0.75225400  0.59124800  1
  Fe  Fe5  1  0.49008800  0.24774600  0.09124800  1
  C  C6  1  0.03518500  0.87778000  0.55361400  1
  C  C7  1  0.98475800  0.62752500  0.63183000  1
  C  C8  1  0.96481500  0.12222000  0.05361400  1
  C  C9  1  0.01524200  0.37247500  0.13183000  1
  O  O10  1  0.26285900  0.97480200  0.52759900  1
  O  O11  1  0.85366100  0.96653600  0.52074300  1
  O  O12  1  0.16630700  0.53759200  0.66333600  1
  O  O13  1  0.75721500  0.53203500  0.65889400  1
  O  O14  1  0.73714100  0.02519800  0.02759900  1
  O  O15  1  0.14633900  0.03346400  0.02074300  1
  O  O16  1  0.83369300  0.46240800  0.16333600  1
  O  O17  1  0.24278500  0.46796500  0.15889400  1
  F  F18  1  0.54661900  0.43761400  0.92219200  1
  F  F19  1  0.45338100  0.56238600  0.42219200  1
  F  F20  1  0.56183000  0.94290400  0.76039400  1
  F  F21  1  0.43817000  0.05709600  0.26039400  1
