# generated using pymatgen
data_Li2FeC2(O2F)2
_symmetry_space_group_name_H-M   'P 1'
_cell_length_a   5.69835791
_cell_length_b   8.20155577
_cell_length_c   7.31916912
_cell_angle_alpha   69.39224578
_cell_angle_beta   81.50594964
_cell_angle_gamma   47.97352113
_symmetry_Int_Tables_number   1
_chemical_formula_structural   Li2FeC2(O2F)2
_chemical_formula_sum   'Li4 Fe2 C4 O8 F4'
_cell_volume   235.92890512
_cell_formula_units_Z   2
loop_
 _symmetry_equiv_pos_site_id
 _symmetry_equiv_pos_as_xyz
  1  'x, y, z'
loop_
 _atom_site_type_symbol
 _atom_site_label
 _atom_site_symmetry_multiplicity
 _atom_site_fract_x
 _atom_site_fract_y
 _atom_site_fract_z
 _atom_site_occupancy
  Li  Li0  1  0.67905800  0.70104400  0.48082900  1
  Li  Li1  1  0.32094200  0.29895600  0.51917100  1
  Li  Li2  1  0.99554800  0.81345200  0.60615200  1
  Li  Li3  1  0.00445200  0.18654800  0.39384800  1
  Fe  Fe4  1  0.17639400  0.76640100  0.20296000  1
  Fe  Fe5  1  0.82360600  0.23359900  0.79704000  1
  C  C6  1  0.47544300  0.23415800  0.13638800  1
  C  C7  1  0.26227800  0.48904300  0.99427500  1
  C  C8  1  0.52455700  0.76584200  0.86361200  1
  C  C9  1  0.73772200  0.51095700  0.00572500  1
  O  O10  1  0.40322200  0.17918100  0.30206900  1
  O  O11  1  0.73272700  0.09306800  0.07009900  1
  O  O12  1  0.03678400  0.64933300  0.05675500  1
  O  O13  1  0.34313300  0.52096500  0.82139800  1
  O  O14  1  0.59677800  0.82081900  0.69793100  1
  O  O15  1  0.26727300  0.90693200  0.92990100  1
  O  O16  1  0.96321600  0.35066700  0.94324500  1
  O  O17  1  0.65686700  0.47903500  0.17860200  1
  F  F18  1  0.24828600  0.87178300  0.39429200  1
  F  F19  1  0.75171400  0.12821700  0.60570800  1
  F  F20  1  0.92393900  0.36961900  0.55004700  1
  F  F21  1  0.07606100  0.63038100  0.44995300  1
