# generated using pymatgen
data_Li2FeC2(O2F)2
_symmetry_space_group_name_H-M   'P 1'
_cell_length_a   5.19551345
_cell_length_b   5.48804668
_cell_length_c   10.09615328
_cell_angle_alpha   78.64552812
_cell_angle_beta   73.79383810
_cell_angle_gamma   64.48781740
_symmetry_Int_Tables_number   1
_chemical_formula_structural   Li2FeC2(O2F)2
_chemical_formula_sum   'Li4 Fe2 C4 O8 F4'
_cell_volume   248.50239906
_cell_formula_units_Z   2
loop_
 _symmetry_equiv_pos_site_id
 _symmetry_equiv_pos_as_xyz
  1  'x, y, z'
loop_
 _atom_site_type_symbol
 _atom_site_label
 _atom_site_symmetry_multiplicity
 _atom_site_fract_x
 _atom_site_fract_y
 _atom_site_fract_z
 _atom_site_occupancy
  Li  Li0  1  0.06850900  0.74914300  0.60672700  1
  Li  Li1  1  0.93149100  0.25085700  0.39327300  1
  Li  Li2  1  0.76053000  0.74394600  0.99333400  1
  Li  Li3  1  0.23947000  0.25605400  0.00666600  1
  Fe  Fe4  1  0.86530800  0.27359700  0.76354600  1
  Fe  Fe5  1  0.13469200  0.72640300  0.23645400  1
  C  C6  1  0.48911300  0.15357500  0.63572600  1
  C  C7  1  0.46780700  0.87939900  0.69094600  1
  C  C8  1  0.51088700  0.84642500  0.36427400  1
  C  C9  1  0.53219300  0.12060100  0.30905400  1
  O  O10  1  0.74349200  0.15422300  0.58963700  1
  O  O11  1  0.24887600  0.35334800  0.63774600  1
  O  O12  1  0.70741000  0.67557600  0.68298500  1
  O  O13  1  0.21425100  0.88085700  0.73422100  1
  O  O14  1  0.25650800  0.84577700  0.41036300  1
  O  O15  1  0.75112400  0.64665200  0.36225400  1
  O  O16  1  0.29259000  0.32442400  0.31701500  1
  O  O17  1  0.78574900  0.11914300  0.26577900  1
  F  F18  1  0.38820800  0.90541000  0.11955500  1
  F  F19  1  0.61179200  0.09459000  0.88044500  1
  F  F20  1  0.91135700  0.39663100  0.92558400  1
  F  F21  1  0.08864300  0.60336900  0.07441600  1
