# generated using pymatgen
data_Li2FeC2(O2F)2
_symmetry_space_group_name_H-M   'P 1'
_cell_length_a   5.12058519
_cell_length_b   9.00630415
_cell_length_c   6.00881018
_cell_angle_alpha   73.87667972
_cell_angle_beta   73.35704876
_cell_angle_gamma   59.20800998
_symmetry_Int_Tables_number   1
_chemical_formula_structural   Li2FeC2(O2F)2
_chemical_formula_sum   'Li4 Fe2 C4 O8 F4'
_cell_volume   225.16390043
_cell_formula_units_Z   2
loop_
 _symmetry_equiv_pos_site_id
 _symmetry_equiv_pos_as_xyz
  1  'x, y, z'
loop_
 _atom_site_type_symbol
 _atom_site_label
 _atom_site_symmetry_multiplicity
 _atom_site_fract_x
 _atom_site_fract_y
 _atom_site_fract_z
 _atom_site_occupancy
  Li  Li0  1  0.94342300  0.21429000  0.62304100  1
  Li  Li1  1  0.05657700  0.78571000  0.37695900  1
  Li  Li2  1  0.24641600  0.46307500  0.61117500  1
  Li  Li3  1  0.75358400  0.53692500  0.38882500  1
  Fe  Fe4  1  0.55636900  0.23382900  0.21132300  1
  Fe  Fe5  1  0.44363100  0.76617100  0.78867700  1
  C  C6  1  0.80496200  0.91468400  0.81297400  1
  C  C7  1  0.89879100  0.74684700  0.99699800  1
  C  C8  1  0.19503800  0.08531600  0.18702600  1
  C  C9  1  0.10120900  0.25315300  0.00300200  1
  O  O10  1  0.98690000  0.98110200  0.75337300  1
  O  O11  1  0.55592700  0.97368000  0.74150700  1
  O  O12  1  0.14298700  0.69355600  0.07570500  1
  O  O13  1  0.72013600  0.67901500  0.06229900  1
  O  O14  1  0.01310000  0.01889800  0.24662700  1
  O  O15  1  0.44407300  0.02632000  0.25849300  1
  O  O16  1  0.85701300  0.30644400  0.92429500  1
  O  O17  1  0.27986400  0.32098500  0.93770100  1
  F  F18  1  0.65004800  0.34520800  0.42171600  1
  F  F19  1  0.34995200  0.65479200  0.57828400  1
  F  F20  1  0.84428800  0.65959100  0.55911800  1
  F  F21  1  0.15571200  0.34040900  0.44088200  1
