# generated using pymatgen
data_Li2FeC2(O2F)2
_symmetry_space_group_name_H-M   'P 1'
_cell_length_a   7.33129263
_cell_length_b   6.02722626
_cell_length_c   8.42837955
_cell_angle_alpha   113.18850951
_cell_angle_beta   123.29911464
_cell_angle_gamma   104.26271562
_symmetry_Int_Tables_number   1
_chemical_formula_structural   Li2FeC2(O2F)2
_chemical_formula_sum   'Li4 Fe2 C4 O8 F4'
_cell_volume   228.46784608
_cell_formula_units_Z   2
loop_
 _symmetry_equiv_pos_site_id
 _symmetry_equiv_pos_as_xyz
  1  'x, y, z'
loop_
 _atom_site_type_symbol
 _atom_site_label
 _atom_site_symmetry_multiplicity
 _atom_site_fract_x
 _atom_site_fract_y
 _atom_site_fract_z
 _atom_site_occupancy
  Li  Li0  1  0.18584200  0.30675400  0.58799100  1
  Li  Li1  1  0.81415800  0.69324600  0.41200900  1
  Li  Li2  1  0.70445100  0.46226500  0.66813600  1
  Li  Li3  1  0.29554900  0.53773500  0.33186400  1
  Fe  Fe4  1  0.49695500  0.91055200  0.15647500  1
  Fe  Fe5  1  0.50304500  0.08944800  0.84352500  1
  C  C6  1  0.88194500  0.02752900  0.80294900  1
  C  C7  1  0.14613600  0.23084800  0.88930000  1
  C  C8  1  0.11805500  0.97247100  0.19705100  1
  C  C9  1  0.85386400  0.76915200  0.11070000  1
  O  O10  1  0.71362900  0.75784100  0.59890100  1
  O  O11  1  0.85836200  0.14631400  0.94558600  1
  O  O12  1  0.16672500  0.11066500  0.74341500  1
  O  O13  1  0.31980100  0.49844900  0.09534100  1
  O  O14  1  0.28637100  0.24215900  0.40109900  1
  O  O15  1  0.14163800  0.85368600  0.05441400  1
  O  O16  1  0.83327500  0.88933500  0.25658500  1
  O  O17  1  0.68019900  0.50155100  0.90465900  1
  F  F18  1  0.73349800  0.18969900  0.51320000  1
  F  F19  1  0.26650200  0.81030100  0.48680000  1
  F  F20  1  0.32731700  0.70346500  0.81077200  1
  F  F21  1  0.67268300  0.29653500  0.18922800  1
