# generated using pymatgen
data_Li2FeC2(O2F)2
_symmetry_space_group_name_H-M   'P 1'
_cell_length_a   4.54341282
_cell_length_b   7.33388664
_cell_length_c   8.45676371
_cell_angle_alpha   86.49472525
_cell_angle_beta   84.67937139
_cell_angle_gamma   51.93503096
_symmetry_Int_Tables_number   1
_chemical_formula_structural   Li2FeC2(O2F)2
_chemical_formula_sum   'Li4 Fe2 C4 O8 F4'
_cell_volume   220.89542217
_cell_formula_units_Z   2
loop_
 _symmetry_equiv_pos_site_id
 _symmetry_equiv_pos_as_xyz
  1  'x, y, z'
loop_
 _atom_site_type_symbol
 _atom_site_label
 _atom_site_symmetry_multiplicity
 _atom_site_fract_x
 _atom_site_fract_y
 _atom_site_fract_z
 _atom_site_occupancy
  Li  Li0  1  0.09919600  0.24478900  0.99335900  1
  Li  Li1  1  0.90080400  0.75521100  0.00664100  1
  Li  Li2  1  0.90053900  0.25594800  0.50706200  1
  Li  Li3  1  0.09946100  0.74405200  0.49293800  1
  Fe  Fe4  1  0.49945800  0.75045500  0.74987700  1
  Fe  Fe5  1  0.50054200  0.24954500  0.25012300  1
  C  C6  1  0.36398900  0.88284900  0.24964300  1
  C  C7  1  0.63693300  0.61636300  0.25029900  1
  C  C8  1  0.63601100  0.11715100  0.75035700  1
  C  C9  1  0.36306700  0.38363700  0.74970100  1
  O  O10  1  0.05540100  0.97753200  0.33128600  1
  O  O11  1  0.47120900  0.98493800  0.16720300  1
  O  O12  1  0.52966100  0.51432500  0.33278200  1
  O  O13  1  0.94535800  0.52163000  0.16856000  1
  O  O14  1  0.94459900  0.02246800  0.66871400  1
  O  O15  1  0.52879100  0.01506200  0.83279700  1
  O  O16  1  0.47033900  0.48567500  0.66721800  1
  O  O17  1  0.05464200  0.47837000  0.83144000  1
  F  F18  1  0.69944500  0.74925300  0.53845000  1
  F  F19  1  0.30055500  0.25074700  0.46155000  1
  F  F20  1  0.30018300  0.75074600  0.96158700  1
  F  F21  1  0.69981700  0.24925400  0.03841300  1
