# generated using pymatgen
data_Li2FeC2(O2F)2
_symmetry_space_group_name_H-M   'P 1'
_cell_length_a   5.88488196
_cell_length_b   6.30704897
_cell_length_c   8.77809481
_cell_angle_alpha   51.13882121
_cell_angle_beta   78.54880854
_cell_angle_gamma   61.97092926
_symmetry_Int_Tables_number   1
_chemical_formula_structural   Li2FeC2(O2F)2
_chemical_formula_sum   'Li4 Fe2 C4 O8 F4'
_cell_volume   221.73210567
_cell_formula_units_Z   2
loop_
 _symmetry_equiv_pos_site_id
 _symmetry_equiv_pos_as_xyz
  1  'x, y, z'
loop_
 _atom_site_type_symbol
 _atom_site_label
 _atom_site_symmetry_multiplicity
 _atom_site_fract_x
 _atom_site_fract_y
 _atom_site_fract_z
 _atom_site_occupancy
  Li  Li0  1  0.02520900  0.86100700  0.91216300  1
  Li  Li1  1  0.97479100  0.13899300  0.08783700  1
  Li  Li2  1  0.48911800  0.04751700  0.80229200  1
  Li  Li3  1  0.51088200  0.95248300  0.19770800  1
  Fe  Fe4  1  0.51696500  0.54066700  0.79586000  1
  Fe  Fe5  1  0.48303500  0.45933300  0.20414000  1
  C  C6  1  0.87303900  0.76267500  0.49989800  1
  C  C7  1  0.14877700  0.73719500  0.49275600  1
  C  C8  1  0.12696100  0.23732500  0.50010200  1
  C  C9  1  0.85122300  0.26280500  0.50724400  1
  O  O10  1  0.70803000  0.99138700  0.34521500  1
  O  O11  1  0.83337300  0.55111400  0.65579200  1
  O  O12  1  0.18739700  0.94421200  0.33298100  1
  O  O13  1  0.31053400  0.51457800  0.64946100  1
  O  O14  1  0.29197000  0.00861300  0.65478500  1
  O  O15  1  0.16662700  0.44888600  0.34420800  1
  O  O16  1  0.81260300  0.05578800  0.66701900  1
  O  O17  1  0.68946600  0.48542200  0.35053900  1
  F  F18  1  0.70750600  0.54301000  0.98270100  1
  F  F19  1  0.29249400  0.45699000  0.01729900  1
  F  F20  1  0.27030200  0.93643600  0.01238000  1
  F  F21  1  0.72969800  0.06356400  0.98762000  1
