# generated using pymatgen
data_Li2FeC2(O2F)2
_symmetry_space_group_name_H-M   'P 1'
_cell_length_a   5.37344883
_cell_length_b   6.22197394
_cell_length_c   6.75090174
_cell_angle_alpha   96.08054567
_cell_angle_beta   99.72713596
_cell_angle_gamma   98.23320983
_symmetry_Int_Tables_number   1
_chemical_formula_structural   Li2FeC2(O2F)2
_chemical_formula_sum   'Li4 Fe2 C4 O8 F4'
_cell_volume   218.20069367
_cell_formula_units_Z   2
loop_
 _symmetry_equiv_pos_site_id
 _symmetry_equiv_pos_as_xyz
  1  'x, y, z'
loop_
 _atom_site_type_symbol
 _atom_site_label
 _atom_site_symmetry_multiplicity
 _atom_site_fract_x
 _atom_site_fract_y
 _atom_site_fract_z
 _atom_site_occupancy
  Li  Li0  1  0.04519200  0.29926200  0.00818800  1
  Li  Li1  1  0.95480800  0.70073800  0.99181200  1
  Li  Li2  1  0.51138000  0.39752200  0.19922800  1
  Li  Li3  1  0.48862000  0.60247800  0.80077200  1
  Fe  Fe4  1  0.52168700  0.11413500  0.79741200  1
  Fe  Fe5  1  0.47831300  0.88586500  0.20258800  1
  C  C6  1  0.12590600  0.79621900  0.48617500  1
  C  C7  1  0.85453600  0.70224800  0.51776500  1
  C  C8  1  0.87409400  0.20378100  0.51382500  1
  C  C9  1  0.14546400  0.29775200  0.48223500  1
  O  O10  1  0.14417000  0.84459500  0.31084600  1
  O  O11  1  0.30857200  0.82367100  0.63611200  1
  O  O12  1  0.67531200  0.68251300  0.36365600  1
  O  O13  1  0.82984200  0.65018300  0.68749000  1
  O  O14  1  0.85583000  0.15540500  0.68915400  1
  O  O15  1  0.69142800  0.17632900  0.36388800  1
  O  O16  1  0.32468800  0.31748700  0.63634400  1
  O  O17  1  0.17015800  0.34981700  0.31251000  1
  F  F18  1  0.27511700  0.58645700  0.01227400  1
  F  F19  1  0.72488300  0.41354300  0.98772600  1
  F  F20  1  0.30717100  0.10831200  0.01533400  1
  F  F21  1  0.69282900  0.89168800  0.98466600  1
