# generated using pymatgen
data_Li2FeC2(O2F)2
_symmetry_space_group_name_H-M   'P 1'
_cell_length_a   6.41650689
_cell_length_b   6.41650725
_cell_length_c   6.44132267
_cell_angle_alpha   70.53424033
_cell_angle_beta   70.53424554
_cell_angle_gamma   65.58174864
_symmetry_Int_Tables_number   1
_chemical_formula_structural   Li2FeC2(O2F)2
_chemical_formula_sum   'Li4 Fe2 C4 O8 F4'
_cell_volume   221.69434318
_cell_formula_units_Z   2
loop_
 _symmetry_equiv_pos_site_id
 _symmetry_equiv_pos_as_xyz
  1  'x, y, z'
loop_
 _atom_site_type_symbol
 _atom_site_label
 _atom_site_symmetry_multiplicity
 _atom_site_fract_x
 _atom_site_fract_y
 _atom_site_fract_z
 _atom_site_occupancy
  Li  Li0  1  0.67779800  0.59896700  0.71443900  1
  Li  Li1  1  0.59896700  0.67779800  0.21443900  1
  Li  Li2  1  0.13258600  0.60524200  0.80715000  1
  Li  Li3  1  0.60524200  0.13258600  0.30715000  1
  Fe  Fe4  1  0.60512400  0.10856200  0.80297100  1
  Fe  Fe5  1  0.10856200  0.60512400  0.30297100  1
  C  C6  1  0.18264000  0.16421500  0.20673100  1
  C  C7  1  0.03705200  0.03181000  0.40758100  1
  C  C8  1  0.16421500  0.18264000  0.70673100  1
  C  C9  1  0.03181000  0.03705200  0.90758100  1
  O  O10  1  0.08461900  0.38100900  0.13016000  1
  O  O11  1  0.39273300  0.04189600  0.13249900  1
  O  O12  1  0.82570600  0.15028100  0.47943800  1
  O  O13  1  0.14076900  0.81629400  0.48476200  1
  O  O14  1  0.38100900  0.08461900  0.63016000  1
  O  O15  1  0.04189600  0.39273300  0.63249900  1
  O  O16  1  0.15028100  0.82570600  0.97943800  1
  O  O17  1  0.81629400  0.14076900  0.98476200  1
  F  F18  1  0.74787400  0.75547000  0.88319200  1
  F  F19  1  0.75547000  0.74787400  0.38319200  1
  F  F20  1  0.45234800  0.46623100  0.23946200  1
  F  F21  1  0.46623100  0.45234800  0.73946200  1
