# generated using pymatgen
data_Li2FeC2(O2F)2
_symmetry_space_group_name_H-M   'P 1'
_cell_length_a   6.17143391
_cell_length_b   7.19544399
_cell_length_c   7.90875261
_cell_angle_alpha   99.62500168
_cell_angle_beta   109.26007964
_cell_angle_gamma   124.52357227
_symmetry_Int_Tables_number   1
_chemical_formula_structural   Li2FeC2(O2F)2
_chemical_formula_sum   'Li4 Fe2 C4 O8 F4'
_cell_volume   243.19646858
_cell_formula_units_Z   2
loop_
 _symmetry_equiv_pos_site_id
 _symmetry_equiv_pos_as_xyz
  1  'x, y, z'
loop_
 _atom_site_type_symbol
 _atom_site_label
 _atom_site_symmetry_multiplicity
 _atom_site_fract_x
 _atom_site_fract_y
 _atom_site_fract_z
 _atom_site_occupancy
  Li  Li0  1  0.88477000  0.71631500  0.64145500  1
  Li  Li1  1  0.51306700  0.34540300  0.91789900  1
  Li  Li2  1  0.92888700  0.15375700  0.74809700  1
  Li  Li3  1  0.50405600  0.71496100  0.85850600  1
  Fe  Fe4  1  0.28340100  0.20377100  0.49461500  1
  Fe  Fe5  1  0.17718200  0.39313800  0.16405000  1
  C  C6  1  0.40880800  0.87834700  0.41523800  1
  C  C7  1  0.10333600  0.75909800  0.23241000  1
  C  C8  1  0.92849400  0.39332200  0.43404800  1
  C  C9  1  0.62045100  0.30990200  0.27741100  1
  O  O10  1  0.49546100  0.75646600  0.41428300  1
  O  O11  1  0.55396500  0.09098300  0.55692500  1
  O  O12  1  0.96712200  0.54949300  0.09250800  1
  O  O13  1  0.00383100  0.87121200  0.23803300  1
  O  O14  1  0.00000000  0.27350100  0.36922600  1
  O  O15  1  0.08372900  0.57067900  0.60668900  1
  O  O16  1  0.48229800  0.16416300  0.09850200  1
  O  O17  1  0.53156100  0.40933500  0.35329800  1
  F  F18  1  0.13114700  0.05557300  0.67788800  1
  F  F19  1  0.60914000  0.53856700  0.73748300  1
  F  F20  1  0.82689600  0.05508100  0.93128000  1
  F  F21  1  0.31863300  0.47191300  0.95678800  1
