# generated using pymatgen
data_Li2FeC2(O2F)2
_symmetry_space_group_name_H-M   'P 1'
_cell_length_a   5.40784339
_cell_length_b   6.63898379
_cell_length_c   7.55644741
_cell_angle_alpha   118.63921746
_cell_angle_beta   102.93410021
_cell_angle_gamma   84.78734479
_symmetry_Int_Tables_number   1
_chemical_formula_structural   Li2FeC2(O2F)2
_chemical_formula_sum   'Li4 Fe2 C4 O8 F4'
_cell_volume   232.02036962
_cell_formula_units_Z   2
loop_
 _symmetry_equiv_pos_site_id
 _symmetry_equiv_pos_as_xyz
  1  'x, y, z'
loop_
 _atom_site_type_symbol
 _atom_site_label
 _atom_site_symmetry_multiplicity
 _atom_site_fract_x
 _atom_site_fract_y
 _atom_site_fract_z
 _atom_site_occupancy
  Li  Li0  1  0.70090500  0.10740200  0.50279000  1
  Li  Li1  1  0.29909500  0.89259800  0.49721000  1
  Li  Li2  1  0.51611400  0.49406000  0.28075600  1
  Li  Li3  1  0.48388600  0.50594000  0.71924400  1
  Fe  Fe4  1  0.05587400  0.26641200  0.33173800  1
  Fe  Fe5  1  0.94412600  0.73358800  0.66826200  1
  C  C6  1  0.90015600  0.84015200  0.07248700  1
  C  C7  1  0.15192700  0.71079600  0.04095700  1
  C  C8  1  0.09984400  0.15984800  0.92751300  1
  C  C9  1  0.84807300  0.28920400  0.95904300  1
  O  O10  1  0.86709300  0.95973600  0.25630800  1
  O  O11  1  0.74634400  0.81658100  0.91012100  1
  O  O12  1  0.28197600  0.68006000  0.18395400  1
  O  O13  1  0.20088200  0.63922700  0.86276800  1
  O  O14  1  0.13290700  0.04026400  0.74369200  1
  O  O15  1  0.25365600  0.18341900  0.08987900  1
  O  O16  1  0.71802400  0.31994000  0.81604600  1
  O  O17  1  0.79911800  0.36077300  0.13723200  1
  F  F18  1  0.34315000  0.17930400  0.49099200  1
  F  F19  1  0.65685000  0.82069600  0.50900800  1
  F  F20  1  0.23769100  0.59192300  0.49971700  1
  F  F21  1  0.76230900  0.40807700  0.50028300  1
