# generated using pymatgen
data_Li2FeC2(O2F)2
_symmetry_space_group_name_H-M   'P 1'
_cell_length_a   4.86967900
_cell_length_b   6.32641246
_cell_length_c   8.80774584
_cell_angle_alpha   115.13771692
_cell_angle_beta   90.00000000
_cell_angle_gamma   112.63564674
_symmetry_Int_Tables_number   1
_chemical_formula_structural   Li2FeC2(O2F)2
_chemical_formula_sum   'Li4 Fe2 C4 O8 F4'
_cell_volume   222.34179375
_cell_formula_units_Z   2
loop_
 _symmetry_equiv_pos_site_id
 _symmetry_equiv_pos_as_xyz
  1  'x, y, z'
loop_
 _atom_site_type_symbol
 _atom_site_label
 _atom_site_symmetry_multiplicity
 _atom_site_fract_x
 _atom_site_fract_y
 _atom_site_fract_z
 _atom_site_occupancy
  Li  Li0  1  0.66352100  0.38746900  0.87632300  1
  Li  Li1  1  0.72394800  0.38746900  0.37632300  1
  Li  Li2  1  0.22479200  0.38903600  0.05464800  1
  Li  Li3  1  0.16424500  0.38903600  0.55464800  1
  Fe  Fe4  1  0.81391800  0.88754500  0.71627400  1
  Fe  Fe5  1  0.07362700  0.88754500  0.21627400  1
  C  C6  1  0.50200200  0.03443500  0.52104600  1
  C  C7  1  0.38990400  0.74306400  0.41110700  1
  C  C8  1  0.53243300  0.03443500  0.02104600  1
  C  C9  1  0.35316100  0.74306400  0.91110700  1
  O  O10  1  0.71363000  0.14310000  0.64921400  1
  O  O11  1  0.37125400  0.14037200  0.47376800  1
  O  O12  1  0.51850600  0.63550700  0.45787100  1
  O  O13  1  0.17946800  0.63577400  0.28238600  1
  O  O14  1  0.42947000  0.14310000  0.14921400  1
  O  O15  1  0.76911800  0.14037200  0.97376800  1
  O  O16  1  0.11700100  0.63550700  0.95787100  1
  O  O17  1  0.45630500  0.63577400  0.78238600  1
  F  F18  1  0.98886200  0.62958200  0.59265000  1
  F  F19  1  0.64072000  0.62958200  0.09265000  1
  F  F20  1  0.24843300  0.15057400  0.83795500  1
  F  F21  1  0.90214100  0.15057400  0.33795500  1
