# generated using pymatgen
data_Li2FeC2(O2F)2
_symmetry_space_group_name_H-M   'P 1'
_cell_length_a   4.59011050
_cell_length_b   5.71679300
_cell_length_c   10.60050880
_cell_angle_alpha   90.00000000
_cell_angle_beta   122.22692182
_cell_angle_gamma   90.00000000
_symmetry_Int_Tables_number   1
_chemical_formula_structural   Li2FeC2(O2F)2
_chemical_formula_sum   'Li4 Fe2 C4 O8 F4'
_cell_volume   235.31155827
_cell_formula_units_Z   2
loop_
 _symmetry_equiv_pos_site_id
 _symmetry_equiv_pos_as_xyz
  1  'x, y, z'
loop_
 _atom_site_type_symbol
 _atom_site_label
 _atom_site_symmetry_multiplicity
 _atom_site_fract_x
 _atom_site_fract_y
 _atom_site_fract_z
 _atom_site_occupancy
  Li  Li0  1  0.34881200  0.13322700  0.83607600  1
  Li  Li1  1  0.34881200  0.86677300  0.33607600  1
  Li  Li2  1  0.89903400  0.36617300  0.37984200  1
  Li  Li3  1  0.89903400  0.63382700  0.87984200  1
  Fe  Fe4  1  0.12340400  0.75012500  0.60784900  1
  Fe  Fe5  1  0.12340400  0.24987500  0.10784900  1
  C  C6  1  0.62497200  0.88060900  0.09172600  1
  C  C7  1  0.62254600  0.61860700  0.12400100  1
  C  C8  1  0.62497200  0.11939100  0.59172600  1
  C  C9  1  0.62254600  0.38139300  0.62400100  1
  O  O10  1  0.34097700  0.98487900  0.00907600  1
  O  O11  1  0.92245800  0.96898900  0.15232900  1
  O  O12  1  0.32491500  0.53038400  0.06339400  1
  O  O13  1  0.90637700  0.51422600  0.20654400  1
  O  O14  1  0.34097700  0.01512100  0.50907600  1
  O  O15  1  0.92245800  0.03101100  0.65232900  1
  O  O16  1  0.32491500  0.46961600  0.56339400  1
  O  O17  1  0.90637700  0.48577400  0.70654400  1
  F  F18  1  0.71515600  0.33610700  0.91233100  1
  F  F19  1  0.71515600  0.66389300  0.41233100  1
  F  F20  1  0.53210200  0.16371800  0.30327700  1
  F  F21  1  0.53210200  0.83628200  0.80327700  1
