# generated using pymatgen
data_Li2FeC2(O2F)2
_symmetry_space_group_name_H-M   'P 1'
_cell_length_a   5.69970088
_cell_length_b   5.93219891
_cell_length_c   7.73648344
_cell_angle_alpha   106.72925604
_cell_angle_beta   107.49536962
_cell_angle_gamma   101.36465360
_symmetry_Int_Tables_number   1
_chemical_formula_structural   Li2FeC2(O2F)2
_chemical_formula_sum   'Li4 Fe2 C4 O8 F4'
_cell_volume   227.11634260
_cell_formula_units_Z   2
loop_
 _symmetry_equiv_pos_site_id
 _symmetry_equiv_pos_as_xyz
  1  'x, y, z'
loop_
 _atom_site_type_symbol
 _atom_site_label
 _atom_site_symmetry_multiplicity
 _atom_site_fract_x
 _atom_site_fract_y
 _atom_site_fract_z
 _atom_site_occupancy
  Li  Li0  1  0.38180800  0.14143700  0.54886300  1
  Li  Li1  1  0.60513700  0.74562100  0.83584500  1
  Li  Li2  1  0.20135800  0.48725400  0.39984300  1
  Li  Li3  1  0.76064300  0.96992200  0.30713000  1
  Fe  Fe4  1  0.13670700  0.80801200  0.14957200  1
  Fe  Fe5  1  0.53698600  0.32905200  0.07475300  1
  C  C6  1  0.77540000  0.52648500  0.52059900  1
  C  C7  1  0.01924800  0.64595600  0.70943600  1
  C  C8  1  0.04180400  0.16509900  0.75337500  1
  C  C9  1  0.98958600  0.25216600  0.94228100  1
  O  O10  1  0.56215900  0.47350900  0.54001500  1
  O  O11  1  0.81453600  0.49154000  0.36365400  1
  O  O12  1  0.97237000  0.73834400  0.86208900  1
  O  O13  1  0.23235600  0.64115200  0.70012900  1
  O  O14  1  0.85247500  0.08392500  0.59493600  1
  O  O15  1  0.27941100  0.19337800  0.77765900  1
  O  O16  1  0.76893600  0.15963800  0.93774500  1
  O  O17  1  0.17847500  0.42254300  0.08990300  1
  F  F18  1  0.32663000  0.81409700  0.40714500  1
  F  F19  1  0.46907800  0.02778700  0.14601300  1
  F  F20  1  0.71165500  0.66864300  0.07802400  1
  F  F21  1  0.08723000  0.12218600  0.31949800  1
