# generated using pymatgen
data_Li2FeC2(O2F)2
_symmetry_space_group_name_H-M   'P 1'
_cell_length_a   3.17084400
_cell_length_b   6.91615951
_cell_length_c   10.11135390
_cell_angle_alpha   89.77727184
_cell_angle_beta   90.00000000
_cell_angle_gamma   90.00000000
_symmetry_Int_Tables_number   1
_chemical_formula_structural   Li2FeC2(O2F)2
_chemical_formula_sum   'Li4 Fe2 C4 O8 F4'
_cell_volume   221.74095153
_cell_formula_units_Z   2
loop_
 _symmetry_equiv_pos_site_id
 _symmetry_equiv_pos_as_xyz
  1  'x, y, z'
loop_
 _atom_site_type_symbol
 _atom_site_label
 _atom_site_symmetry_multiplicity
 _atom_site_fract_x
 _atom_site_fract_y
 _atom_site_fract_z
 _atom_site_occupancy
  Li  Li0  1  0.49523200  0.92609100  0.41673100  1
  Li  Li1  1  0.50476800  0.92609100  0.91673100  1
  Li  Li2  1  0.95067700  0.04727800  0.18012400  1
  Li  Li3  1  0.04932300  0.04727800  0.68012400  1
  Fe  Fe4  1  0.42376300  0.32638400  0.42207400  1
  Fe  Fe5  1  0.57623700  0.32638400  0.92207400  1
  C  C6  1  0.32041200  0.65081700  0.63336200  1
  C  C7  1  0.11404600  0.63765200  0.77239800  1
  C  C8  1  0.67958800  0.65081700  0.13336200  1
  C  C9  1  0.88595400  0.63765200  0.27239800  1
  O  O10  1  0.44059200  0.49430800  0.58201900  1
  O  O11  1  0.35443700  0.81877500  0.58679600  1
  O  O12  1  0.07085300  0.47075900  0.82485800  1
  O  O13  1  0.99788300  0.79443200  0.82291900  1
  O  O14  1  0.55940800  0.49430800  0.08201900  1
  O  O15  1  0.64556300  0.81877500  0.08679600  1
  O  O16  1  0.92914700  0.47075900  0.32485800  1
  O  O17  1  0.00211700  0.79443200  0.32291900  1
  F  F18  1  0.55225100  0.12380100  0.78002800  1
  F  F19  1  0.44774900  0.12380100  0.28002800  1
  F  F20  1  0.07486800  0.15065100  0.00121900  1
  F  F21  1  0.92513200  0.15065100  0.50121900  1
