# generated using pymatgen
data_Li2FeC2(O2F)2
_symmetry_space_group_name_H-M   'P 1'
_cell_length_a   6.85118204
_cell_length_b   5.27204677
_cell_length_c   7.47891343
_cell_angle_alpha   105.07173926
_cell_angle_beta   104.85019060
_cell_angle_gamma   102.75966959
_symmetry_Int_Tables_number   1
_chemical_formula_structural   Li2FeC2(O2F)2
_chemical_formula_sum   'Li4 Fe2 C4 O8 F4'
_cell_volume   239.87169212
_cell_formula_units_Z   2
loop_
 _symmetry_equiv_pos_site_id
 _symmetry_equiv_pos_as_xyz
  1  'x, y, z'
loop_
 _atom_site_type_symbol
 _atom_site_label
 _atom_site_symmetry_multiplicity
 _atom_site_fract_x
 _atom_site_fract_y
 _atom_site_fract_z
 _atom_site_occupancy
  Li  Li0  1  0.47816600  0.12816100  0.86737700  1
  Li  Li1  1  0.52183400  0.87183900  0.13262300  1
  Li  Li2  1  0.72098800  0.41172200  0.34222400  1
  Li  Li3  1  0.27901200  0.58827800  0.65777600  1
  Fe  Fe4  1  0.18768500  0.28894300  0.17486300  1
  Fe  Fe5  1  0.81231500  0.71105700  0.82513700  1
  C  C6  1  0.79662000  0.99893200  0.54088400  1
  C  C7  1  0.95467100  0.21783700  0.73616000  1
  C  C8  1  0.20338000  0.00106800  0.45911600  1
  C  C9  1  0.04532900  0.78216300  0.26384000  1
  O  O10  1  0.73615600  0.75411100  0.54477300  1
  O  O11  1  0.74940600  0.07109700  0.39245900  1
  O  O12  1  0.00009300  0.12168400  0.87616100  1
  O  O13  1  0.03644200  0.46042700  0.74346900  1
  O  O14  1  0.26384400  0.24588900  0.45522700  1
  O  O15  1  0.25059400  0.92890300  0.60754100  1
  O  O16  1  0.99990700  0.87831600  0.12383900  1
  O  O17  1  0.96355800  0.53957300  0.25653100  1
  F  F18  1  0.34145800  0.65752000  0.20501400  1
  F  F19  1  0.65854200  0.34248000  0.79498600  1
  F  F20  1  0.53744300  0.79651300  0.87485100  1
  F  F21  1  0.46255700  0.20348700  0.12514900  1
