# generated using pymatgen
data_Li2FeC2(O2F)2
_symmetry_space_group_name_H-M   'P 1'
_cell_length_a   6.92925403
_cell_length_b   7.07767590
_cell_length_c   6.79239701
_cell_angle_alpha   53.53220854
_cell_angle_beta   65.39137808
_cell_angle_gamma   63.27805012
_symmetry_Int_Tables_number   1
_chemical_formula_structural   Li2FeC2(O2F)2
_chemical_formula_sum   'Li4 Fe2 C4 O8 F4'
_cell_volume   234.06546196
_cell_formula_units_Z   2
loop_
 _symmetry_equiv_pos_site_id
 _symmetry_equiv_pos_as_xyz
  1  'x, y, z'
loop_
 _atom_site_type_symbol
 _atom_site_label
 _atom_site_symmetry_multiplicity
 _atom_site_fract_x
 _atom_site_fract_y
 _atom_site_fract_z
 _atom_site_occupancy
  Li  Li0  1  0.99073300  0.14917900  0.64582300  1
  Li  Li1  1  0.44173100  0.56919500  0.25798600  1
  Li  Li2  1  0.55820500  0.11040100  0.79954700  1
  Li  Li3  1  0.01345200  0.63787900  0.72770900  1
  Fe  Fe4  1  0.98697800  0.73178100  0.17246000  1
  Fe  Fe5  1  0.50653200  0.62360600  0.72314200  1
  C  C6  1  0.67487400  0.08368700  0.34998200  1
  C  C7  1  0.80267400  0.22961900  0.08238600  1
  C  C8  1  0.20643100  0.27334600  0.13977200  1
  C  C9  1  0.31413600  0.99740300  0.28275300  1
  O  O10  1  0.71709900  0.85536500  0.43345700  1
  O  O11  1  0.54200000  0.19536800  0.46519100  1
  O  O12  1  0.96136500  0.10616200  0.98830800  1
  O  O13  1  0.74246900  0.46035800  0.97784200  1
  O  O14  1  0.27312400  0.38451800  0.90454200  1
  O  O15  1  0.06029400  0.36758100  0.27014000  1
  O  O16  1  0.45287900  0.89574800  0.15898300  1
  O  O17  1  0.25836800  0.89615900  0.51983100  1
  F  F18  1  0.69117500  0.37115600  0.63472500  1
  F  F19  1  0.87437700  0.86085700  0.86260300  1
  F  F20  1  0.13698200  0.60342000  0.44407500  1
  F  F21  1  0.31959300  0.71680500  0.97573500  1
