# generated using pymatgen
data_Li2FeC2(O2F)2
_symmetry_space_group_name_H-M   'P 1'
_cell_length_a   6.51038263
_cell_length_b   5.18191675
_cell_length_c   7.71028257
_cell_angle_alpha   96.61189112
_cell_angle_beta   76.49587648
_cell_angle_gamma   110.01370026
_symmetry_Int_Tables_number   1
_chemical_formula_structural   Li2FeC2(O2F)2
_chemical_formula_sum   'Li4 Fe2 C4 O8 F4'
_cell_volume   237.47410069
_cell_formula_units_Z   2
loop_
 _symmetry_equiv_pos_site_id
 _symmetry_equiv_pos_as_xyz
  1  'x, y, z'
loop_
 _atom_site_type_symbol
 _atom_site_label
 _atom_site_symmetry_multiplicity
 _atom_site_fract_x
 _atom_site_fract_y
 _atom_site_fract_z
 _atom_site_occupancy
  Li  Li0  1  0.30808500  0.44803200  0.72623200  1
  Li  Li1  1  0.69191500  0.55196800  0.27376700  1
  Li  Li2  1  0.09913100  0.79781800  0.98182400  1
  Li  Li3  1  0.90086900  0.20218200  0.01817600  1
  Fe  Fe4  1  0.15027100  0.40711900  0.31210200  1
  Fe  Fe5  1  0.84972900  0.59288100  0.68789800  1
  C  C6  1  0.28631500  0.97889600  0.42366000  1
  C  C7  1  0.46729200  0.94595500  0.25920000  1
  C  C8  1  0.71368500  0.02110400  0.57634000  1
  C  C9  1  0.53270800  0.05404500  0.74080000  1
  O  O10  1  0.15646100  0.75432400  0.49452200  1
  O  O11  1  0.28609800  0.21725300  0.48009500  1
  O  O12  1  0.46648500  0.69963000  0.21905900  1
  O  O13  1  0.60443100  0.15853900  0.18710500  1
  O  O14  1  0.84353900  0.24567600  0.50547800  1
  O  O15  1  0.71390200  0.78274700  0.51990500  1
  O  O16  1  0.53351500  0.30037000  0.78094100  1
  O  O17  1  0.39556900  0.84146100  0.81289500  1
  F  F18  1  0.98334100  0.56428800  0.17544500  1
  F  F19  1  0.01665900  0.43571200  0.82455500  1
  F  F20  1  0.10648000  0.11624300  0.13089700  1
  F  F21  1  0.89352000  0.88375700  0.86910300  1
