# generated using pymatgen
data_Li2FeC2(O2F)2
_symmetry_space_group_name_H-M   'P 1'
_cell_length_a   5.59687107
_cell_length_b   6.80304551
_cell_length_c   7.23506078
_cell_angle_alpha   90.69135723
_cell_angle_beta   93.79940002
_cell_angle_gamma   123.93449946
_symmetry_Int_Tables_number   1
_chemical_formula_structural   Li2FeC2(O2F)2
_chemical_formula_sum   'Li4 Fe2 C4 O8 F4'
_cell_volume   227.65653220
_cell_formula_units_Z   2
loop_
 _symmetry_equiv_pos_site_id
 _symmetry_equiv_pos_as_xyz
  1  'x, y, z'
loop_
 _atom_site_type_symbol
 _atom_site_label
 _atom_site_symmetry_multiplicity
 _atom_site_fract_x
 _atom_site_fract_y
 _atom_site_fract_z
 _atom_site_occupancy
  Li  Li0  1  0.75396500  0.28388700  0.91497100  1
  Li  Li1  1  0.24603500  0.71611300  0.08502900  1
  Li  Li2  1  0.81126100  0.78946500  0.89743700  1
  Li  Li3  1  0.18873900  0.21053500  0.10256300  1
  Fe  Fe4  1  0.23974700  0.70445700  0.65814900  1
  Fe  Fe5  1  0.76025300  0.29554300  0.34185100  1
  C  C6  1  0.90594100  0.78264100  0.31294700  1
  C  C7  1  0.68356800  0.83038700  0.37931700  1
  C  C8  1  0.09405900  0.21735900  0.68705300  1
  C  C9  1  0.31643200  0.16961300  0.62068300  1
  O  O10  1  0.97531100  0.67105200  0.41995100  1
  O  O11  1  0.00460100  0.85391000  0.15863700  1
  O  O12  1  0.59564700  0.76113400  0.53632900  1
  O  O13  1  0.61290500  0.93971500  0.27228000  1
  O  O14  1  0.02468900  0.32894800  0.58004900  1
  O  O15  1  0.99539900  0.14609000  0.84136300  1
  O  O16  1  0.40435300  0.23886600  0.46367100  1
  O  O17  1  0.38709500  0.06028500  0.72772000  1
  F  F18  1  0.55190800  0.29740600  0.10005100  1
  F  F19  1  0.44809200  0.70259400  0.89994900  1
  F  F20  1  0.07418300  0.40476000  0.16919300  1
  F  F21  1  0.92581700  0.59524000  0.83080700  1
