# generated using pymatgen
data_Li2FeC2(O2F)2
_symmetry_space_group_name_H-M   'P 1'
_cell_length_a   7.27329602
_cell_length_b   7.27329604
_cell_length_c   7.93633640
_cell_angle_alpha   56.02754630
_cell_angle_beta   56.02754872
_cell_angle_gamma   51.84118387
_symmetry_Int_Tables_number   1
_chemical_formula_structural   Li2FeC2(O2F)2
_chemical_formula_sum   'Li4 Fe2 C4 O8 F4'
_cell_volume   258.67386747
_cell_formula_units_Z   2
loop_
 _symmetry_equiv_pos_site_id
 _symmetry_equiv_pos_as_xyz
  1  'x, y, z'
loop_
 _atom_site_type_symbol
 _atom_site_label
 _atom_site_symmetry_multiplicity
 _atom_site_fract_x
 _atom_site_fract_y
 _atom_site_fract_z
 _atom_site_occupancy
  Li  Li0  1  0.27102200  0.84752600  0.68481600  1
  Li  Li1  1  0.84752600  0.27102200  0.18481600  1
  Li  Li2  1  0.30954600  0.37487100  0.22358200  1
  Li  Li3  1  0.37487100  0.30954600  0.72358200  1
  Fe  Fe4  1  0.83342200  0.41278000  0.76669100  1
  Fe  Fe5  1  0.41278000  0.83342200  0.26669100  1
  C  C6  1  0.70487100  0.91191100  0.53968900  1
  C  C7  1  0.97504000  0.77535400  0.40721300  1
  C  C8  1  0.91191100  0.70487100  0.03968900  1
  C  C9  1  0.77535400  0.97504000  0.90721300  1
  O  O10  1  0.58894400  0.77862800  0.67978800  1
  O  O11  1  0.62345000  0.13537400  0.50328300  1
  O  O12  1  0.05668900  0.54817600  0.44590400  1
  O  O13  1  0.09291800  0.90375700  0.26860800  1
  O  O14  1  0.77862800  0.58894400  0.17978800  1
  O  O15  1  0.13537400  0.62345000  0.00328300  1
  O  O16  1  0.54817600  0.05668900  0.94590400  1
  O  O17  1  0.90375700  0.09291800  0.76860800  1
  F  F18  1  0.33980300  0.62498400  0.58051300  1
  F  F19  1  0.62498400  0.33980300  0.08051300  1
  F  F20  1  0.32458500  0.06426300  0.38110000  1
  F  F21  1  0.06426300  0.32458500  0.88110000  1
