# generated using pymatgen
data_Li2FeC2(O2F)2
_symmetry_space_group_name_H-M   'P 1'
_cell_length_a   5.50313535
_cell_length_b   5.50313568
_cell_length_c   9.66539667
_cell_angle_alpha   99.80808397
_cell_angle_beta   99.80808303
_cell_angle_gamma   72.73194663
_symmetry_Int_Tables_number   1
_chemical_formula_structural   Li2FeC2(O2F)2
_chemical_formula_sum   'Li4 Fe2 C4 O8 F4'
_cell_volume   273.19196876
_cell_formula_units_Z   2
loop_
 _symmetry_equiv_pos_site_id
 _symmetry_equiv_pos_as_xyz
  1  'x, y, z'
loop_
 _atom_site_type_symbol
 _atom_site_label
 _atom_site_symmetry_multiplicity
 _atom_site_fract_x
 _atom_site_fract_y
 _atom_site_fract_z
 _atom_site_occupancy
  Li  Li0  1  0.34976100  0.07678900  0.95254800  1
  Li  Li1  1  0.57678900  0.84976100  0.45254800  1
  Li  Li2  1  0.98415100  0.25975800  0.28283200  1
  Li  Li3  1  0.75975800  0.48415100  0.78283200  1
  Fe  Fe4  1  0.66434400  0.66924300  0.11750800  1
  Fe  Fe5  1  0.16924300  0.16434400  0.61750800  1
  C  C6  1  0.02380000  0.69685100  0.59503700  1
  C  C7  1  0.31583400  0.63135100  0.63841900  1
  C  C8  1  0.19685100  0.52380000  0.09503700  1
  C  C9  1  0.13135100  0.81583400  0.13841900  1
  O  O10  1  0.91487600  0.52747200  0.60294600  1
  O  O11  1  0.91173300  0.91256000  0.55319700  1
  O  O12  1  0.42809700  0.41610500  0.68070400  1
  O  O13  1  0.42468500  0.80098900  0.63072300  1
  O  O14  1  0.02747200  0.41487600  0.10294600  1
  O  O15  1  0.41256000  0.41173300  0.05319700  1
  O  O16  1  0.91610500  0.92809700  0.18070400  1
  O  O17  1  0.30098900  0.92468500  0.13072300  1
  F  F18  1  0.25958100  0.12435300  0.42194300  1
  F  F19  1  0.62435300  0.75958100  0.92194300  1
  F  F20  1  0.70763600  0.57708900  0.31267500  1
  F  F21  1  0.07708900  0.20763600  0.81267500  1
