# generated using pymatgen
data_Li2FeC2(O2F)2
_symmetry_space_group_name_H-M   'P 1'
_cell_length_a   5.72737596
_cell_length_b   6.56314100
_cell_length_c   8.01656080
_cell_angle_alpha   90.00000000
_cell_angle_beta   118.22165667
_cell_angle_gamma   90.00000000
_symmetry_Int_Tables_number   1
_chemical_formula_structural   Li2FeC2(O2F)2
_chemical_formula_sum   'Li4 Fe2 C4 O8 F4'
_cell_volume   265.51736553
_cell_formula_units_Z   2
loop_
 _symmetry_equiv_pos_site_id
 _symmetry_equiv_pos_as_xyz
  1  'x, y, z'
loop_
 _atom_site_type_symbol
 _atom_site_label
 _atom_site_symmetry_multiplicity
 _atom_site_fract_x
 _atom_site_fract_y
 _atom_site_fract_z
 _atom_site_occupancy
  Li  Li0  1  0.06694500  0.55752400  0.73802000  1
  Li  Li1  1  0.93305500  0.05752400  0.26198000  1
  Li  Li2  1  0.61354300  0.31168400  0.90464000  1
  Li  Li3  1  0.38645700  0.81168500  0.09536000  1
  Fe  Fe4  1  0.02200300  0.08200100  0.70474100  1
  Fe  Fe5  1  0.97799700  0.58200100  0.29525900  1
  C  C6  1  0.45750500  0.06597300  0.57551700  1
  C  C7  1  0.49213000  0.04856600  0.39734300  1
  C  C8  1  0.54249500  0.56597300  0.42448300  1
  C  C9  1  0.50787000  0.54856600  0.60265700  1
  O  O10  1  0.66425400  0.09319400  0.73269100  1
  O  O11  1  0.22218400  0.05327100  0.54705400  1
  O  O12  1  0.73042400  0.06544100  0.42693900  1
  O  O13  1  0.29223600  0.01587800  0.24170200  1
  O  O14  1  0.33574600  0.59319400  0.26730900  1
  O  O15  1  0.77781600  0.55327100  0.45294600  1
  O  O16  1  0.26957600  0.56544100  0.57306100  1
  O  O17  1  0.70776400  0.51587800  0.75829800  1
  F  F18  1  0.14957000  0.81808200  0.84538100  1
  F  F19  1  0.85043000  0.31808200  0.15461900  1
  F  F20  1  0.25185700  0.30673100  0.85031400  1
  F  F21  1  0.74814300  0.80673100  0.14968600  1
