# generated using pymatgen
data_Li2FeC2(O2F)2
_symmetry_space_group_name_H-M   'P 1'
_cell_length_a   6.67511839
_cell_length_b   6.99829127
_cell_length_c   6.47051621
_cell_angle_alpha   114.50999206
_cell_angle_beta   72.75625453
_cell_angle_gamma   107.87367628
_symmetry_Int_Tables_number   1
_chemical_formula_structural   Li2FeC2(O2F)2
_chemical_formula_sum   'Li4 Fe2 C4 O8 F4'
_cell_volume   256.71509333
_cell_formula_units_Z   2
loop_
 _symmetry_equiv_pos_site_id
 _symmetry_equiv_pos_as_xyz
  1  'x, y, z'
loop_
 _atom_site_type_symbol
 _atom_site_label
 _atom_site_symmetry_multiplicity
 _atom_site_fract_x
 _atom_site_fract_y
 _atom_site_fract_z
 _atom_site_occupancy
  Li  Li0  1  0.70453100  0.71436300  0.94121300  1
  Li  Li1  1  0.29546900  0.28563700  0.05878700  1
  Li  Li2  1  0.86579900  0.08488900  0.34762800  1
  Li  Li3  1  0.13420100  0.91511100  0.65237200  1
  Fe  Fe4  1  0.29125500  0.42988900  0.66850100  1
  Fe  Fe5  1  0.70874500  0.57011100  0.33149900  1
  C  C6  1  0.82767700  0.16471000  0.98253500  1
  C  C7  1  0.85444800  0.30877500  0.84583700  1
  C  C8  1  0.17232300  0.83529000  0.01746500  1
  C  C9  1  0.14555200  0.69122500  0.15416300  1
  O  O10  1  0.78379400  0.25384200  0.20256700  1
  O  O11  1  0.85334700  0.97538400  0.87234000  1
  O  O12  1  0.77317800  0.47264400  0.96003600  1
  O  O13  1  0.95856300  0.26132900  0.63889100  1
  O  O14  1  0.21620600  0.74615800  0.79743300  1
  O  O15  1  0.14665300  0.02461600  0.12766000  1
  O  O16  1  0.22682200  0.52735600  0.03996400  1
  O  O17  1  0.04143700  0.73867100  0.36110900  1
  F  F18  1  0.61613900  0.57429300  0.65908000  1
  F  F19  1  0.38386100  0.42570700  0.34092000  1
  F  F20  1  0.32140300  0.17993300  0.72190800  1
  F  F21  1  0.67859700  0.82006700  0.27809200  1
