# generated using pymatgen
data_Li2FeC2(O2F)2
_symmetry_space_group_name_H-M   'P 1'
_cell_length_a   5.37139474
_cell_length_b   9.03045500
_cell_length_c   5.57823872
_cell_angle_alpha   90.00000000
_cell_angle_beta   106.33989502
_cell_angle_gamma   90.00000000
_symmetry_Int_Tables_number   1
_chemical_formula_structural   Li2FeC2(O2F)2
_chemical_formula_sum   'Li4 Fe2 C4 O8 F4'
_cell_volume   259.65004166
_cell_formula_units_Z   2
loop_
 _symmetry_equiv_pos_site_id
 _symmetry_equiv_pos_as_xyz
  1  'x, y, z'
loop_
 _atom_site_type_symbol
 _atom_site_label
 _atom_site_symmetry_multiplicity
 _atom_site_fract_x
 _atom_site_fract_y
 _atom_site_fract_z
 _atom_site_occupancy
  Li  Li0  1  0.07172800  0.60286100  0.63428100  1
  Li  Li1  1  0.07172800  0.39713900  0.13428100  1
  Li  Li2  1  0.40650300  0.39773900  0.75458600  1
  Li  Li3  1  0.40650300  0.60226100  0.25458600  1
  Fe  Fe4  1  0.73737800  0.12160400  0.94630000  1
  Fe  Fe5  1  0.73737800  0.87839600  0.44630000  1
  C  C6  1  0.29700400  0.92305800  0.69859800  1
  C  C7  1  0.17732300  0.07828800  0.69332800  1
  C  C8  1  0.29700400  0.07694200  0.19859800  1
  C  C9  1  0.17732300  0.92171200  0.19332800  1
  O  O10  1  0.54187600  0.91900600  0.73725100  1
  O  O11  1  0.14146600  0.81632100  0.65961500  1
  O  O12  1  0.33305600  0.18495600  0.73266600  1
  O  O13  1  0.93241400  0.08225100  0.65438300  1
  O  O14  1  0.54187600  0.08099400  0.23725100  1
  O  O15  1  0.14146600  0.18367900  0.15961500  1
  O  O16  1  0.33305600  0.81504400  0.23266600  1
  O  O17  1  0.93241400  0.91774900  0.15438300  1
  F  F18  1  0.23882900  0.48885800  0.44438400  1
  F  F19  1  0.23882900  0.51114200  0.94438400  1
  F  F20  1  0.73827100  0.34180800  0.94625400  1
  F  F21  1  0.73827100  0.65819200  0.44625400  1
