# generated using pymatgen
data_Li2FeC2(O2F)2
_symmetry_space_group_name_H-M   'P 1'
_cell_length_a   3.30151510
_cell_length_b   7.62635550
_cell_length_c   11.25992832
_cell_angle_alpha   57.62061437
_cell_angle_beta   80.82844096
_cell_angle_gamma   79.02851929
_symmetry_Int_Tables_number   1
_chemical_formula_structural   Li2FeC2(O2F)2
_chemical_formula_sum   'Li4 Fe2 C4 O8 F4'
_cell_volume   234.48705941
_cell_formula_units_Z   2
loop_
 _symmetry_equiv_pos_site_id
 _symmetry_equiv_pos_as_xyz
  1  'x, y, z'
loop_
 _atom_site_type_symbol
 _atom_site_label
 _atom_site_symmetry_multiplicity
 _atom_site_fract_x
 _atom_site_fract_y
 _atom_site_fract_z
 _atom_site_occupancy
  Li  Li0  1  0.93687600  0.34775200  0.38639300  1
  Li  Li1  1  0.38912600  0.94600700  0.45718000  1
  Li  Li2  1  0.11230000  0.36784400  0.86821200  1
  Li  Li3  1  0.55083100  0.26393600  0.18309800  1
  Fe  Fe4  1  0.69803200  0.93549300  0.72758400  1
  Fe  Fe5  1  0.99415400  0.89430800  0.20065600  1
  C  C6  1  0.90449400  0.59881700  0.50513100  1
  C  C7  1  0.76470700  0.39102300  0.63397600  1
  C  C8  1  0.61345600  0.79857400  0.01355800  1
  C  C9  1  0.90892600  0.62188300  0.00577100  1
  O  O10  1  0.97444300  0.60510300  0.38792000  1
  O  O11  1  0.92824400  0.74422200  0.52374000  1
  O  O12  1  0.73775700  0.25427700  0.60441000  1
  O  O13  1  0.68435800  0.37657900  0.75148900  1
  O  O14  1  0.56350900  0.79371000  0.12958500  1
  O  O15  1  0.42057600  0.93284700  0.90572700  1
  O  O16  1  0.07393800  0.47702500  0.11551300  1
  O  O17  1  0.94793600  0.63744100  0.88583600  1
  F  F18  1  0.50687700  0.23261800  0.36556700  1
  F  F19  1  0.40720600  0.98589500  0.27647500  1
  F  F20  1  0.27339500  0.92639500  0.63259500  1
  F  F21  1  0.88867400  0.19081700  0.04974200  1
