# generated using pymatgen
data_Li2FeC2(O2F)2
_symmetry_space_group_name_H-M   'P 1'
_cell_length_a   5.77266789
_cell_length_b   7.21555358
_cell_length_c   12.73034600
_cell_angle_alpha   90.00000000
_cell_angle_beta   90.00000000
_cell_angle_gamma   112.08310506
_symmetry_Int_Tables_number   1
_chemical_formula_structural   Li2FeC2(O2F)2
_chemical_formula_sum   'Li8 Fe4 C8 O16 F8'
_cell_volume   491.35712547
_cell_formula_units_Z   4
loop_
 _symmetry_equiv_pos_site_id
 _symmetry_equiv_pos_as_xyz
  1  'x, y, z'
loop_
 _atom_site_type_symbol
 _atom_site_label
 _atom_site_symmetry_multiplicity
 _atom_site_fract_x
 _atom_site_fract_y
 _atom_site_fract_z
 _atom_site_occupancy
  Li  Li0  1  0.30547500  0.00089200  0.21362400  1
  Li  Li1  1  0.69452500  0.99910800  0.71362400  1
  Li  Li2  1  0.48265400  0.74049600  0.34572300  1
  Li  Li3  1  0.51734600  0.25950400  0.84572300  1
  Li  Li4  1  0.06396000  0.36137500  0.56082400  1
  Li  Li5  1  0.93604000  0.63862500  0.06082400  1
  Li  Li6  1  0.86321200  0.97074000  0.20088400  1
  Li  Li7  1  0.13678800  0.02926000  0.70088400  1
  Fe  Fe8  1  0.85775600  0.61327900  0.70168900  1
  Fe  Fe9  1  0.14224400  0.38672100  0.20168900  1
  Fe  Fe10  1  0.08516200  0.99187300  0.45234100  1
  Fe  Fe11  1  0.91483800  0.00812700  0.95234100  1
  C  C12  1  0.09153600  0.39336700  0.82868200  1
  C  C13  1  0.29226100  0.51969700  0.75143700  1
  C  C14  1  0.90846400  0.60663300  0.32868200  1
  C  C15  1  0.70773900  0.48030300  0.25143700  1
  C  C16  1  0.61759100  0.11332300  0.47397300  1
  C  C17  1  0.56320500  0.28733800  0.52441000  1
  C  C18  1  0.38240900  0.88667700  0.97397300  1
  C  C19  1  0.43679500  0.71266200  0.02441000  1
  O  O20  1  0.89309100  0.42969500  0.83253000  1
  O  O21  1  0.14650000  0.26867400  0.88312400  1
  O  O22  1  0.22997300  0.62614100  0.68635800  1
  O  O23  1  0.50137400  0.50384000  0.75847900  1
  O  O24  1  0.10690900  0.57030500  0.33253000  1
  O  O25  1  0.85350000  0.73132600  0.38312400  1
  O  O26  1  0.77002700  0.37385900  0.18635800  1
  O  O27  1  0.49862600  0.49616000  0.25847900  1
  O  O28  1  0.43333900  0.95907400  0.44546500  1
  O  O29  1  0.84493700  0.14000000  0.46620400  1
  O  O30  1  0.33872800  0.27466800  0.51808900  1
  O  O31  1  0.74631000  0.42473700  0.56553500  1
  O  O32  1  0.56666100  0.04092600  0.94546500  1
  O  O33  1  0.15506300  0.86000000  0.96620400  1
  O  O34  1  0.66127200  0.72533200  0.01808900  1
  O  O35  1  0.25369000  0.57526300  0.06553500  1
  F  F36  1  0.54816600  0.91345800  0.23432900  1
  F  F37  1  0.45183400  0.08654200  0.73432900  1
  F  F38  1  0.96226700  0.84538900  0.59522100  1
  F  F39  1  0.03773300  0.15461100  0.09522100  1
  F  F40  1  0.13567500  0.12760800  0.29598600  1
  F  F41  1  0.86432500  0.87239200  0.79598600  1
  F  F42  1  0.98201000  0.20064500  0.67467800  1
  F  F43  1  0.01799000  0.79935500  0.17467800  1
