# generated using pymatgen
data_Li2FeC2(O2F)2
_symmetry_space_group_name_H-M   'P 1'
_cell_length_a   5.06482200
_cell_length_b   5.97468554
_cell_length_c   9.20626704
_cell_angle_alpha   97.22080331
_cell_angle_beta   90.00000000
_cell_angle_gamma   115.07831243
_symmetry_Int_Tables_number   1
_chemical_formula_structural   Li2FeC2(O2F)2
_chemical_formula_sum   'Li4 Fe2 C4 O8 F4'
_cell_volume   249.88399643
_cell_formula_units_Z   2
loop_
 _symmetry_equiv_pos_site_id
 _symmetry_equiv_pos_as_xyz
  1  'x, y, z'
loop_
 _atom_site_type_symbol
 _atom_site_label
 _atom_site_symmetry_multiplicity
 _atom_site_fract_x
 _atom_site_fract_y
 _atom_site_fract_z
 _atom_site_occupancy
  Li  Li0  1  0.80425200  0.81886300  0.66077100  1
  Li  Li1  1  0.01461100  0.81886300  0.16077100  1
  Li  Li2  1  0.49446900  0.77916800  0.28192300  1
  Li  Li3  1  0.28469800  0.77916800  0.78192300  1
  Fe  Fe4  1  0.81708600  0.29877400  0.22104300  1
  Fe  Fe5  1  0.48168700  0.29877400  0.72104300  1
  C  C6  1  0.23915800  0.43943900  0.47222700  1
  C  C7  1  0.05871800  0.15929700  0.47046900  1
  C  C8  1  0.20028200  0.43943900  0.97222700  1
  C  C9  1  0.10057800  0.15929700  0.97046900  1
  O  O10  1  0.16732100  0.54083800  0.37640700  1
  O  O11  1  0.44609300  0.54396900  0.56880500  1
  O  O12  1  0.85181200  0.05399600  0.37401200  1
  O  O13  1  0.13104600  0.05839500  0.56653200  1
  O  O14  1  0.37351700  0.54083800  0.87640700  1
  O  O15  1  0.09787700  0.54396900  0.06880500  1
  O  O16  1  0.20218300  0.05399600  0.87401200  1
  O  O17  1  0.92734900  0.05839500  0.06653200  1
  F  F18  1  0.90159300  0.56595800  0.71417500  1
  F  F19  1  0.66436400  0.56595800  0.21417500  1
  F  F20  1  0.63537600  0.03281600  0.72881800  1
  F  F21  1  0.39744000  0.03281600  0.22881800  1
