# generated using pymatgen
data_Li2FeC2(O2F)2
_symmetry_space_group_name_H-M   'P 1'
_cell_length_a   3.37742683
_cell_length_b   7.27133764
_cell_length_c   11.02056064
_cell_angle_alpha   99.45833499
_cell_angle_beta   74.15062730
_cell_angle_gamma   82.54961810
_symmetry_Int_Tables_number   1
_chemical_formula_structural   Li2FeC2(O2F)2
_chemical_formula_sum   'Li4 Fe2 C4 O8 F4'
_cell_volume   252.43649246
_cell_formula_units_Z   2
loop_
 _symmetry_equiv_pos_site_id
 _symmetry_equiv_pos_as_xyz
  1  'x, y, z'
loop_
 _atom_site_type_symbol
 _atom_site_label
 _atom_site_symmetry_multiplicity
 _atom_site_fract_x
 _atom_site_fract_y
 _atom_site_fract_z
 _atom_site_occupancy
  Li  Li0  1  0.14495600  0.98764300  0.61330300  1
  Li  Li1  1  0.85504400  0.01235700  0.38669700  1
  Li  Li2  1  0.84118900  0.01352600  0.89640300  1
  Li  Li3  1  0.15881100  0.98647400  0.10359700  1
  Fe  Fe4  1  0.54142300  0.66686200  0.77082000  1
  Fe  Fe5  1  0.45857700  0.33313800  0.22918000  1
  C  C6  1  0.84067000  0.66279600  0.23002000  1
  C  C7  1  0.47217700  0.70028300  0.35596500  1
  C  C8  1  0.15933000  0.33720400  0.76998000  1
  C  C9  1  0.52782300  0.29971700  0.64403400  1
  O  O10  1  0.01491600  0.79932000  0.20419700  1
  O  O11  1  0.94621300  0.49110400  0.16696400  1
  O  O12  1  0.37550800  0.86671000  0.42501500  1
  O  O13  1  0.29006600  0.56364900  0.37988100  1
  O  O14  1  0.98508400  0.20068000  0.79580300  1
  O  O15  1  0.05378700  0.50889600  0.83303600  1
  O  O16  1  0.62449200  0.13329000  0.57498500  1
  O  O17  1  0.70993400  0.43635100  0.62011900  1
  F  F18  1  0.04400800  0.81028500  0.71572700  1
  F  F19  1  0.95599200  0.18971500  0.28427300  1
  F  F20  1  0.64476600  0.11133700  0.08065400  1
  F  F21  1  0.35523400  0.88866300  0.91934600  1
