# generated using pymatgen
data_Li2FeC2(O2F)2
_symmetry_space_group_name_H-M   'P 1'
_cell_length_a   9.02930654
_cell_length_b   9.02749549
_cell_length_c   9.02749539
_cell_angle_alpha   102.23875529
_cell_angle_beta   113.20716791
_cell_angle_gamma   113.20716523
_symmetry_Int_Tables_number   1
_chemical_formula_structural   Li2FeC2(O2F)2
_chemical_formula_sum   'Li8 Fe4 C8 O16 F8'
_cell_volume   559.76122442
_cell_formula_units_Z   4
loop_
 _symmetry_equiv_pos_site_id
 _symmetry_equiv_pos_as_xyz
  1  'x, y, z'
loop_
 _atom_site_type_symbol
 _atom_site_label
 _atom_site_symmetry_multiplicity
 _atom_site_fract_x
 _atom_site_fract_y
 _atom_site_fract_z
 _atom_site_occupancy
  Li  Li0  1  0.39602900  0.75253200  0.98118700  1
  Li  Li1  1  0.60385600  0.58499800  0.35638700  1
  Li  Li2  1  0.77137200  0.01896100  0.41474500  1
  Li  Li3  1  0.22868700  0.64370700  0.24742500  1
  Li  Li4  1  0.72868700  0.99742500  0.89370700  1
  Li  Li5  1  0.27137200  0.16474500  0.26896100  1
  Li  Li6  1  0.89602900  0.73118700  0.00253200  1
  Li  Li7  1  0.10385600  0.10638700  0.83499800  1
  Fe  Fe8  1  0.99707000  0.37489500  0.87218300  1
  Fe  Fe9  1  0.49707000  0.62218300  0.62489500  1
  Fe  Fe10  1  0.00259300  0.87482800  0.37778800  1
  Fe  Fe11  1  0.50259300  0.12778800  0.12482800  1
  C  C12  1  0.18640900  0.27525800  0.53457300  1
  C  C13  1  0.81379400  0.34810200  0.08907700  1
  C  C14  1  0.74082500  0.46562200  0.65187200  1
  C  C15  1  0.25919500  0.91108700  0.72465300  1
  C  C16  1  0.75919500  0.47465300  0.16108700  1
  C  C17  1  0.24082500  0.40187200  0.71562200  1
  C  C18  1  0.68640900  0.28457300  0.52525800  1
  C  C19  1  0.31379400  0.83907700  0.59810200  1
  O  O20  1  0.02978100  0.12768900  0.44635500  1
  O  O21  1  0.30601000  0.32971000  0.48776300  1
  O  O22  1  0.97041900  0.41662800  0.09813600  1
  O  O23  1  0.69434400  0.18164400  0.02411300  1
  O  O24  1  0.68132600  0.55374500  0.58338800  1
  O  O25  1  0.84225400  0.51258000  0.81833800  1
  O  O26  1  0.31840400  0.90188800  0.87217000  1
  O  O27  1  0.15787800  0.97618300  0.67014400  1
  O  O28  1  0.81840400  0.62217000  0.15188800  1
  O  O29  1  0.65787800  0.42014400  0.22618300  1
  O  O30  1  0.18132600  0.33338800  0.80374500  1
  O  O31  1  0.34225400  0.56833800  0.76258000  1
  O  O32  1  0.52978100  0.19635500  0.37768900  1
  O  O33  1  0.80601000  0.23776300  0.57971000  1
  O  O34  1  0.47041900  0.84813600  0.66662800  1
  O  O35  1  0.19434400  0.77411300  0.43164400  1
  F  F36  1  0.27935500  0.15675200  0.06231000  1
  F  F37  1  0.72031200  0.78274700  0.87753300  1
  F  F38  1  0.09468600  0.93749000  0.21720000  1
  F  F39  1  0.90539700  0.12253200  0.84308200  1
  F  F40  1  0.40539700  0.59308200  0.37253200  1
  F  F41  1  0.59468600  0.96720000  0.18749000  1
  F  F42  1  0.77935500  0.81231000  0.40675200  1
  F  F43  1  0.22031200  0.62753300  0.03274700  1
