# generated using pymatgen
data_Li2FeC2(O2F)2
_symmetry_space_group_name_H-M   'P 1'
_cell_length_a   7.13519108
_cell_length_b   8.25603482
_cell_length_c   9.69401523
_cell_angle_alpha   96.48878473
_cell_angle_beta   119.79047715
_cell_angle_gamma   97.38125083
_symmetry_Int_Tables_number   1
_chemical_formula_structural   Li2FeC2(O2F)2
_chemical_formula_sum   'Li8 Fe4 C8 O16 F8'
_cell_volume   480.99903821
_cell_formula_units_Z   4
loop_
 _symmetry_equiv_pos_site_id
 _symmetry_equiv_pos_as_xyz
  1  'x, y, z'
loop_
 _atom_site_type_symbol
 _atom_site_label
 _atom_site_symmetry_multiplicity
 _atom_site_fract_x
 _atom_site_fract_y
 _atom_site_fract_z
 _atom_site_occupancy
  Li  Li0  1  0.16629900  0.70514800  0.28569600  1
  Li  Li1  1  0.83370100  0.29485200  0.71430400  1
  Li  Li2  1  0.15631900  0.38238300  0.13117100  1
  Li  Li3  1  0.84368100  0.61761700  0.86882900  1
  Li  Li4  1  0.32938800  0.05226500  0.48924400  1
  Li  Li5  1  0.67061200  0.94773500  0.51075600  1
  Li  Li6  1  0.57149300  0.39786400  0.43401900  1
  Li  Li7  1  0.42850700  0.60213600  0.56598100  1
  Fe  Fe8  1  0.26666300  0.54069400  0.86333600  1
  Fe  Fe9  1  0.73333700  0.45930600  0.13666400  1
  Fe  Fe10  1  0.49225200  0.91294300  0.78529000  1
  Fe  Fe11  1  0.50774800  0.08705700  0.21471000  1
  C  C12  1  0.39305300  0.26100900  0.75805600  1
  C  C13  1  0.16603600  0.27003300  0.61089700  1
  C  C14  1  0.60694700  0.73899100  0.24194400  1
  C  C15  1  0.83396400  0.72996700  0.38910300  1
  C  C16  1  0.87987100  0.12496900  0.15443500  1
  C  C17  1  0.07725300  0.04853700  0.18206900  1
  C  C18  1  0.12012900  0.87503100  0.84556500  1
  C  C19  1  0.92274700  0.95146300  0.81793100  1
  O  O20  1  0.49239800  0.15523800  0.73361000  1
  O  O21  1  0.46145300  0.35947700  0.89145600  1
  O  O22  1  0.11116400  0.17895100  0.47929700  1
  O  O23  1  0.05639700  0.36650300  0.63721500  1
  O  O24  1  0.50760200  0.84476200  0.26639000  1
  O  O25  1  0.53854700  0.64052300  0.10854400  1
  O  O26  1  0.88883600  0.82104900  0.52070300  1
  O  O27  1  0.94360300  0.63349700  0.36278500  1
  O  O28  1  0.90172500  0.27613800  0.14479400  1
  O  O29  1  0.71565300  0.03311000  0.14509200  1
  O  O30  1  0.19995000  0.12656000  0.13798200  1
  O  O31  1  0.11528300  0.92994300  0.25379100  1
  O  O32  1  0.09827500  0.72386200  0.85520600  1
  O  O33  1  0.28434700  0.96689000  0.85490800  1
  O  O34  1  0.80005000  0.87344000  0.86201800  1
  O  O35  1  0.88471700  0.07005700  0.74620900  1
  F  F36  1  0.57863200  0.34342000  0.23830600  1
  F  F37  1  0.42136800  0.65658000  0.76169400  1
  F  F38  1  0.07282200  0.41178700  0.92365600  1
  F  F39  1  0.92717800  0.58821300  0.07634400  1
  F  F40  1  0.56672400  0.15274200  0.45171700  1
  F  F41  1  0.43327600  0.84725800  0.54828300  1
  F  F42  1  0.33854300  0.52319900  0.34703500  1
  F  F43  1  0.66145700  0.47680100  0.65296500  1
