# generated using pymatgen
data_Li2FeC2(O2F)2
_symmetry_space_group_name_H-M   'P 1'
_cell_length_a   5.70439578
_cell_length_b   5.26847221
_cell_length_c   8.95886586
_cell_angle_alpha   86.98891243
_cell_angle_beta   96.96497568
_cell_angle_gamma   110.68282948
_symmetry_Int_Tables_number   1
_chemical_formula_structural   Li2FeC2(O2F)2
_chemical_formula_sum   'Li4 Fe2 C4 O8 F4'
_cell_volume   250.01949548
_cell_formula_units_Z   2
loop_
 _symmetry_equiv_pos_site_id
 _symmetry_equiv_pos_as_xyz
  1  'x, y, z'
loop_
 _atom_site_type_symbol
 _atom_site_label
 _atom_site_symmetry_multiplicity
 _atom_site_fract_x
 _atom_site_fract_y
 _atom_site_fract_z
 _atom_site_occupancy
  Li  Li0  1  0.88151700  0.84352300  0.53402700  1
  Li  Li1  1  0.45508300  0.49837800  0.05133600  1
  Li  Li2  1  0.44118000  0.63029600  0.35876800  1
  Li  Li3  1  0.94899300  0.13024400  0.89103300  1
  Fe  Fe4  1  0.85869300  0.34429600  0.37314800  1
  Fe  Fe5  1  0.36996300  0.86397700  0.84505300  1
  C  C6  1  0.28908600  0.23662000  0.60834300  1
  C  C7  1  0.57560600  0.30873300  0.64638000  1
  C  C8  1  0.21183100  0.89245400  0.12785900  1
  C  C9  1  0.06772700  0.95479600  0.24705600  1
  O  O10  1  0.21128200  0.37137200  0.50646900  1
  O  O11  1  0.15283200  0.03398800  0.68030800  1
  O  O12  1  0.71954400  0.47642700  0.56306700  1
  O  O13  1  0.64459700  0.18486100  0.75801800  1
  O  O14  1  0.30649900  0.71378600  0.15957800  1
  O  O15  1  0.22750700  0.02771300  0.00392000  1
  O  O16  1  0.03869200  0.79790000  0.36204200  1
  O  O17  1  0.99828200  0.15623000  0.22382100  1
  F  F18  1  0.64250300  0.96852500  0.44723700  1
  F  F19  1  0.58822800  0.42060900  0.24441300  1
  F  F20  1  0.19023100  0.48243800  0.86502300  1
  F  F21  1  0.68144100  0.79106700  0.93858400  1
