# generated using pymatgen
data_Li2FeC2(O2F)2
_symmetry_space_group_name_H-M   'P 1'
_cell_length_a   6.26454844
_cell_length_b   6.26454803
_cell_length_c   6.15624948
_cell_angle_alpha   89.99046072
_cell_angle_beta   89.99046173
_cell_angle_gamma   111.78694006
_symmetry_Int_Tables_number   1
_chemical_formula_structural   Li2FeC2(O2F)2
_chemical_formula_sum   'Li4 Fe2 C4 O8 F4'
_cell_volume   224.34198935
_cell_formula_units_Z   2
loop_
 _symmetry_equiv_pos_site_id
 _symmetry_equiv_pos_as_xyz
  1  'x, y, z'
loop_
 _atom_site_type_symbol
 _atom_site_label
 _atom_site_symmetry_multiplicity
 _atom_site_fract_x
 _atom_site_fract_y
 _atom_site_fract_z
 _atom_site_occupancy
  Li  Li0  1  0.73114900  0.22958200  0.70591200  1
  Li  Li1  1  0.72958200  0.23114900  0.20591200  1
  Li  Li2  1  0.23484400  0.25748400  0.45842000  1
  Li  Li3  1  0.75748400  0.73484400  0.95842000  1
  Fe  Fe4  1  0.76492500  0.75312600  0.45828200  1
  Fe  Fe5  1  0.25312600  0.26492500  0.95828200  1
  C  C6  1  0.19413300  0.84153300  0.20721700  1
  C  C7  1  0.34081200  0.69369100  0.20947400  1
  C  C8  1  0.34153300  0.69413300  0.70721700  1
  C  C9  1  0.19369100  0.84081200  0.70947400  1
  O  O10  1  0.30159500  0.05716600  0.20834300  1
  O  O11  1  0.97895800  0.73747100  0.20390200  1
  O  O12  1  0.55660200  0.79996700  0.20844900  1
  O  O13  1  0.23536100  0.47872900  0.21234400  1
  O  O14  1  0.55716600  0.80159500  0.70834300  1
  O  O15  1  0.23747100  0.47895800  0.70390200  1
  O  O16  1  0.29996700  0.05660200  0.70844900  1
  O  O17  1  0.97872900  0.73536100  0.71234400  1
  F  F18  1  0.64158300  0.40951100  0.45788300  1
  F  F19  1  0.90951100  0.14158300  0.95788300  1
  F  F20  1  0.89267800  0.10314600  0.45851000  1
  F  F21  1  0.60314600  0.39267800  0.95851000  1
