# generated using pymatgen
data_Li2FeC2(O2F)2
_symmetry_space_group_name_H-M   'P 1'
_cell_length_a   5.88713256
_cell_length_b   6.02902101
_cell_length_c   7.56133808
_cell_angle_alpha   84.89858473
_cell_angle_beta   65.50201941
_cell_angle_gamma   89.93118869
_symmetry_Int_Tables_number   1
_chemical_formula_structural   Li2FeC2(O2F)2
_chemical_formula_sum   'Li4 Fe2 C4 O8 F4'
_cell_volume   243.06300221
_cell_formula_units_Z   2
loop_
 _symmetry_equiv_pos_site_id
 _symmetry_equiv_pos_as_xyz
  1  'x, y, z'
loop_
 _atom_site_type_symbol
 _atom_site_label
 _atom_site_symmetry_multiplicity
 _atom_site_fract_x
 _atom_site_fract_y
 _atom_site_fract_z
 _atom_site_occupancy
  Li  Li0  1  0.94665600  0.83219900  0.23007700  1
  Li  Li1  1  0.05334400  0.16780100  0.76992300  1
  Li  Li2  1  0.53805100  0.09816300  0.81647900  1
  Li  Li3  1  0.46194900  0.90183700  0.18352100  1
  Fe  Fe4  1  0.28535300  0.61724600  0.85182200  1
  Fe  Fe5  1  0.71464700  0.38275400  0.14817800  1
  C  C6  1  0.86240500  0.65814000  0.73331100  1
  C  C7  1  0.09832400  0.77525900  0.57332800  1
  C  C8  1  0.13759500  0.34186000  0.26668900  1
  C  C9  1  0.90167600  0.22474100  0.42667200  1
  O  O10  1  0.65731900  0.69104700  0.72608400  1
  O  O11  1  0.90202100  0.54365700  0.86804000  1
  O  O12  1  0.12097700  0.80704100  0.40083300  1
  O  O13  1  0.25617400  0.83697500  0.63622200  1
  O  O14  1  0.34268100  0.30895300  0.27391600  1
  O  O15  1  0.09797900  0.45634300  0.13196000  1
  O  O16  1  0.87902300  0.19295900  0.59916700  1
  O  O17  1  0.74382600  0.16302500  0.36377800  1
  F  F18  1  0.33116600  0.30185800  0.76947900  1
  F  F19  1  0.66883400  0.69814200  0.23052100  1
  F  F20  1  0.72650100  0.10516300  0.98646000  1
  F  F21  1  0.27349900  0.89483700  0.01354000  1
