# generated using pymatgen
data_Li2FeC2(O2F)2
_symmetry_space_group_name_H-M   'P 1'
_cell_length_a   3.20503256
_cell_length_b   5.21552824
_cell_length_c   14.08752059
_cell_angle_alpha   103.63217782
_cell_angle_beta   85.56171511
_cell_angle_gamma   95.94267169
_symmetry_Int_Tables_number   1
_chemical_formula_structural   Li2FeC2(O2F)2
_chemical_formula_sum   'Li4 Fe2 C4 O8 F4'
_cell_volume   227.28012107
_cell_formula_units_Z   2
loop_
 _symmetry_equiv_pos_site_id
 _symmetry_equiv_pos_as_xyz
  1  'x, y, z'
loop_
 _atom_site_type_symbol
 _atom_site_label
 _atom_site_symmetry_multiplicity
 _atom_site_fract_x
 _atom_site_fract_y
 _atom_site_fract_z
 _atom_site_occupancy
  Li  Li0  1  0.33304300  0.48609000  0.85688200  1
  Li  Li1  1  0.62828800  0.79634700  0.24334100  1
  Li  Li2  1  0.97295100  0.75419400  0.04760200  1
  Li  Li3  1  0.53230600  0.04692300  0.94867600  1
  Fe  Fe4  1  0.06544400  0.66568400  0.42805400  1
  Fe  Fe5  1  0.81066900  0.93642800  0.73780000  1
  C  C6  1  0.95598900  0.30366700  0.12329900  1
  C  C7  1  0.09071400  0.22738400  0.21617200  1
  C  C8  1  0.31505900  0.16959000  0.59212400  1
  C  C9  1  0.53939600  0.43684900  0.57923400  1
  O  O10  1  0.78747000  0.51676700  0.13530700  1
  O  O11  1  0.01508700  0.14294800  0.04135300  1
  O  O12  1  0.07440700  0.39904700  0.29479900  1
  O  O13  1  0.20363300  0.99414800  0.20282700  1
  O  O14  1  0.35369600  0.10670500  0.67394300  1
  O  O15  1  0.09598400  0.03779600  0.52539400  1
  O  O16  1  0.75508800  0.56727600  0.64837900  1
  O  O17  1  0.50599800  0.50212800  0.49856300  1
  F  F18  1  0.80038000  0.26040900  0.85003400  1
  F  F19  1  0.26387500  0.80976500  0.81444500  1
  F  F20  1  0.61857700  0.82516200  0.37271000  1
  F  F21  1  0.48122500  0.70200400  0.97578500  1
