# generated using pymatgen
data_Li2FeC2(O2F)2
_symmetry_space_group_name_H-M   'P 1'
_cell_length_a   6.08596965
_cell_length_b   5.59712498
_cell_length_c   7.40284142
_cell_angle_alpha   80.09324629
_cell_angle_beta   82.12175838
_cell_angle_gamma   82.18830701
_symmetry_Int_Tables_number   1
_chemical_formula_structural   Li2FeC2(O2F)2
_chemical_formula_sum   'Li4 Fe2 C4 O8 F4'
_cell_volume   244.42918557
_cell_formula_units_Z   2
loop_
 _symmetry_equiv_pos_site_id
 _symmetry_equiv_pos_as_xyz
  1  'x, y, z'
loop_
 _atom_site_type_symbol
 _atom_site_label
 _atom_site_symmetry_multiplicity
 _atom_site_fract_x
 _atom_site_fract_y
 _atom_site_fract_z
 _atom_site_occupancy
  Li  Li0  1  0.10418400  0.85733500  0.95594900  1
  Li  Li1  1  0.19038000  0.21185000  0.65512400  1
  Li  Li2  1  0.80902600  0.41796600  0.96176500  1
  Li  Li3  1  0.38256100  0.75484700  0.56850900  1
  Fe  Fe4  1  0.97582300  0.57397000  0.35194000  1
  Fe  Fe5  1  0.63427500  0.00696700  0.87431500  1
  C  C6  1  0.35421200  0.34402400  0.09118500  1
  C  C7  1  0.37227400  0.09926300  0.22678800  1
  C  C8  1  0.85860000  0.08772500  0.29165600  1
  C  C9  1  0.75175200  0.99387000  0.48523500  1
  O  O10  1  0.48799600  0.34862700  0.94163300  1
  O  O11  1  0.21683200  0.52208100  0.12827100  1
  O  O12  1  0.48351800  0.92455600  0.15458900  1
  O  O13  1  0.28431800  0.08767800  0.39307600  1
  O  O14  1  0.83466500  0.31551600  0.23337600  1
  O  O15  1  0.95786700  0.92505900  0.20082800  1
  O  O16  1  0.70300800  0.14591600  0.59444700  1
  O  O17  1  0.71947100  0.76833700  0.51586500  1
  F  F18  1  0.34541100  0.92175300  0.77776200  1
  F  F19  1  0.95589900  0.17689000  0.84824500  1
  F  F20  1  0.86027000  0.72434800  0.89962600  1
  F  F21  1  0.17883300  0.53963400  0.54105800  1
