# generated using pymatgen
data_Li2FeC2(O2F)2
_symmetry_space_group_name_H-M   'P 1'
_cell_length_a   5.27934082
_cell_length_b   6.08142112
_cell_length_c   7.67077503
_cell_angle_alpha   87.37983742
_cell_angle_beta   93.76179513
_cell_angle_gamma   98.33774629
_symmetry_Int_Tables_number   1
_chemical_formula_structural   Li2FeC2(O2F)2
_chemical_formula_sum   'Li4 Fe2 C4 O8 F4'
_cell_volume   242.98554907
_cell_formula_units_Z   2
loop_
 _symmetry_equiv_pos_site_id
 _symmetry_equiv_pos_as_xyz
  1  'x, y, z'
loop_
 _atom_site_type_symbol
 _atom_site_label
 _atom_site_symmetry_multiplicity
 _atom_site_fract_x
 _atom_site_fract_y
 _atom_site_fract_z
 _atom_site_occupancy
  Li  Li0  1  0.78858500  0.32779900  0.00868600  1
  Li  Li1  1  0.27759100  0.27171800  0.71939700  1
  Li  Li2  1  0.82616500  0.41937600  0.68009000  1
  Li  Li3  1  0.91782100  0.91336600  0.82486800  1
  Fe  Fe4  1  0.42818800  0.73094400  0.71066600  1
  Fe  Fe5  1  0.91417600  0.66021300  0.37415600  1
  C  C6  1  0.21587200  0.65883900  0.04581900  1
  C  C7  1  0.50032500  0.75455400  0.08805500  1
  C  C8  1  0.53561400  0.23283900  0.34066500  1
  C  C9  1  0.32882000  0.05738500  0.42328600  1
  O  O10  1  0.13727800  0.68906700  0.88617100  1
  O  O11  1  0.07598000  0.55271700  0.15651600  1
  O  O12  1  0.61760800  0.84134000  0.95667000  1
  O  O13  1  0.59120300  0.73582200  0.24202900  1
  O  O14  1  0.67646400  0.36046800  0.44747700  1
  O  O15  1  0.55048400  0.23279000  0.17968100  1
  O  O16  1  0.34908200  0.02656000  0.59073700  1
  O  O17  1  0.16008400  0.95378400  0.32426400  1
  F  F18  1  0.55675100  0.43129900  0.82271400  1
  F  F19  1  0.16095800  0.52245300  0.56583300  1
  F  F20  1  0.97733100  0.21312100  0.83093900  1
  F  F21  1  0.77818400  0.77268700  0.61516200  1
