# generated using pymatgen
data_Li2FeC2(O2F)2
_symmetry_space_group_name_H-M   'P 1'
_cell_length_a   6.74233568
_cell_length_b   8.56467392
_cell_length_c   10.34591953
_cell_angle_alpha   93.86767950
_cell_angle_beta   87.38046999
_cell_angle_gamma   67.21581785
_symmetry_Int_Tables_number   1
_chemical_formula_structural   Li2FeC2(O2F)2
_chemical_formula_sum   'Li8 Fe4 C8 O16 F8'
_cell_volume   547.88441333
_cell_formula_units_Z   4
loop_
 _symmetry_equiv_pos_site_id
 _symmetry_equiv_pos_as_xyz
  1  'x, y, z'
loop_
 _atom_site_type_symbol
 _atom_site_label
 _atom_site_symmetry_multiplicity
 _atom_site_fract_x
 _atom_site_fract_y
 _atom_site_fract_z
 _atom_site_occupancy
  Li  Li0  1  0.31086600  0.87157800  0.06738500  1
  Li  Li1  1  0.68913400  0.12842200  0.93261500  1
  Li  Li2  1  0.99914300  0.91132600  0.28356800  1
  Li  Li3  1  0.00085700  0.08867400  0.71643200  1
  Li  Li4  1  0.11112000  0.57714800  0.44759900  1
  Li  Li5  1  0.88888000  0.42285200  0.55240100  1
  Li  Li6  1  0.01526400  0.74941500  0.96975900  1
  Li  Li7  1  0.98473600  0.25058500  0.03024100  1
  Fe  Fe8  1  0.62421500  0.66029600  0.30499500  1
  Fe  Fe9  1  0.37578500  0.33970400  0.69500500  1
  Fe  Fe10  1  0.57260300  0.90235400  0.77484700  1
  Fe  Fe11  1  0.42739700  0.09764600  0.22515300  1
  C  C12  1  0.34266400  0.93541700  0.53568500  1
  C  C13  1  0.16380500  0.06562600  0.46566000  1
  C  C14  1  0.65733600  0.06458300  0.46431500  1
  C  C15  1  0.83619500  0.93437400  0.53434000  1
  C  C16  1  0.58488800  0.56998500  0.72644000  1
  C  C17  1  0.39141000  0.65026500  0.82789400  1
  C  C18  1  0.41511200  0.43001500  0.27356000  1
  C  C19  1  0.60859000  0.34973500  0.17210600  1
  O  O20  1  0.50242100  0.82393200  0.47209900  1
  O  O21  1  0.31617600  0.95704500  0.66026500  1
  O  O22  1  0.18268000  0.05289000  0.34246500  1
  O  O23  1  0.00929300  0.17365100  0.53805700  1
  O  O24  1  0.49757900  0.17606800  0.52790100  1
  O  O25  1  0.68382400  0.04295500  0.33973500  1
  O  O26  1  0.81732000  0.94711000  0.65753500  1
  O  O27  1  0.99070700  0.82634900  0.46194300  1
  O  O28  1  0.61331500  0.42942600  0.66335400  1
  O  O29  1  0.70941400  0.64570300  0.71016600  1
  O  O30  1  0.26934100  0.57165600  0.84696200  1
  O  O31  1  0.37074600  0.79129800  0.88646000  1
  O  O32  1  0.38668500  0.57057400  0.33664600  1
  O  O33  1  0.29058600  0.35429700  0.28983400  1
  O  O34  1  0.73065900  0.42834400  0.15303800  1
  O  O35  1  0.62925400  0.20870200  0.11354000  1
  F  F36  1  0.09615800  0.80673100  0.12298300  1
  F  F37  1  0.90384200  0.19326900  0.87701700  1
  F  F38  1  0.13718900  0.46417500  0.59740900  1
  F  F39  1  0.86281100  0.53582500  0.40259100  1
  F  F40  1  0.54562300  0.82458000  0.17325000  1
  F  F41  1  0.45437700  0.17542000  0.82675000  1
  F  F42  1  0.76262800  0.89421400  0.91682300  1
  F  F43  1  0.23737200  0.10578600  0.08317700  1
