# generated using pymatgen
data_Li2FeC2(O2F)2
_symmetry_space_group_name_H-M   'P 1'
_cell_length_a   3.84806039
_cell_length_b   10.03591241
_cell_length_c   6.75111261
_cell_angle_alpha   97.18148847
_cell_angle_beta   94.27921780
_cell_angle_gamma   94.21389074
_symmetry_Int_Tables_number   1
_chemical_formula_structural   Li2FeC2(O2F)2
_chemical_formula_sum   'Li4 Fe2 C4 O8 F4'
_cell_volume   257.04834654
_cell_formula_units_Z   2
loop_
 _symmetry_equiv_pos_site_id
 _symmetry_equiv_pos_as_xyz
  1  'x, y, z'
loop_
 _atom_site_type_symbol
 _atom_site_label
 _atom_site_symmetry_multiplicity
 _atom_site_fract_x
 _atom_site_fract_y
 _atom_site_fract_z
 _atom_site_occupancy
  Li  Li0  1  0.23044300  0.77045200  0.44990100  1
  Li  Li1  1  0.72544100  0.55194600  0.27339700  1
  Li  Li2  1  0.63461700  0.29615000  0.41611400  1
  Li  Li3  1  0.74478700  0.89676200  0.26057500  1
  Fe  Fe4  1  0.37171100  0.29417700  0.92002400  1
  Fe  Fe5  1  0.18025600  0.79683000  0.93389800  1
  C  C6  1  0.15819200  0.03624000  0.72449400  1
  C  C7  1  0.10318000  0.13012400  0.56365500  1
  C  C8  1  0.01268500  0.54299000  0.66856000  1
  C  C9  1  0.94677800  0.50157900  0.87451100  1
  O  O10  1  0.14752100  0.91123800  0.67851600  1
  O  O11  1  0.21623800  0.09730700  0.90257000  1
  O  O12  1  0.87623600  0.10210600  0.41969000  1
  O  O13  1  0.29885100  0.24194300  0.60358100  1
  O  O14  1  0.88551300  0.46888600  0.51299800  1
  O  O15  1  0.19470300  0.65417200  0.67621000  1
  O  O16  1  0.87309000  0.37464800  0.88591500  1
  O  O17  1  0.97268600  0.59274400  0.02115700  1
  F  F18  1  0.68830400  0.84281600  0.96879200  1
  F  F19  1  0.44798100  0.37771900  0.19549000  1
  F  F20  1  0.70138300  0.72633400  0.37531300  1
  F  F21  1  0.23629000  0.87754900  0.23199100  1
