# generated using pymatgen
data_Li2FeC2(O2F)2
_symmetry_space_group_name_H-M   'P 1'
_cell_length_a   4.74204891
_cell_length_b   5.66985269
_cell_length_c   8.59621700
_cell_angle_alpha   90.00000000
_cell_angle_beta   90.00000000
_cell_angle_gamma   89.55757105
_symmetry_Int_Tables_number   1
_chemical_formula_structural   Li2FeC2(O2F)2
_chemical_formula_sum   'Li4 Fe2 C4 O8 F4'
_cell_volume   231.11717821
_cell_formula_units_Z   2
loop_
 _symmetry_equiv_pos_site_id
 _symmetry_equiv_pos_as_xyz
  1  'x, y, z'
loop_
 _atom_site_type_symbol
 _atom_site_label
 _atom_site_symmetry_multiplicity
 _atom_site_fract_x
 _atom_site_fract_y
 _atom_site_fract_z
 _atom_site_occupancy
  Li  Li0  1  0.17090100  0.81517500  0.49951500  1
  Li  Li1  1  0.17090100  0.31517500  0.50048500  1
  Li  Li2  1  0.21959900  0.81014500  0.99981000  1
  Li  Li3  1  0.21959900  0.31014500  0.00019000  1
  Fe  Fe4  1  0.69531700  0.06285300  0.75003300  1
  Fe  Fe5  1  0.69531700  0.56285300  0.24996700  1
  C  C6  1  0.56381400  0.56377100  0.69821500  1
  C  C7  1  0.82688400  0.56199400  0.80179700  1
  C  C8  1  0.56381400  0.06377100  0.30178500  1
  C  C9  1  0.82688400  0.06199400  0.19820300  1
  O  O10  1  0.46507600  0.76282300  0.65895200  1
  O  O11  1  0.46229400  0.36604300  0.66108600  1
  O  O12  1  0.92852000  0.75959900  0.83904600  1
  O  O13  1  0.92573600  0.36296000  0.84104100  1
  O  O14  1  0.46507600  0.26282300  0.34104800  1
  O  O15  1  0.46229400  0.86604300  0.33891400  1
  O  O16  1  0.92852000  0.25959900  0.16095400  1
  O  O17  1  0.92573600  0.86296000  0.15895900  1
  F  F18  1  0.95493600  0.56594900  0.43682100  1
  F  F19  1  0.95493600  0.06594900  0.56317900  1
  F  F20  1  0.43560800  0.05922600  0.93689800  1
  F  F21  1  0.43560800  0.55922600  0.06310200  1
